
  -OEChem-06281415292D

 21 22  0     0  0  0  0  0  0999 V2000
   -0.8428    4.5226    0.0000 C   0  0  0  0  0  0  0  0  0  0  0  0
    0.0217    4.0201    0.0000 C   0  0  0  0  0  0  0  0  0  0  0  0
    0.8892    4.5175    0.0000 C   0  0  0  0  0  0  0  0  0  0  0  0
    1.7538    4.0150    0.0000 N   0  0  0  0  0  0  0  0  0  0  0  0
    2.6212    4.5125    0.0000 C   0  0  0  0  0  0  0  0  0  0  0  0
    2.6242    5.5125    0.0000 C   0  0  0  0  0  0  0  0  0  0  0  0
    3.4916    6.0100    0.0000 C   0  0  0  0  0  0  0  0  0  0  0  0
    1.7508    3.0150    0.0000 C   0  0  0  0  0  0  0  0  0  0  0  0
    0.8834    2.5175    0.0000 O   0  0  0  0  0  0  0  0  0  0  0  0
    2.6154    2.5125    0.0000 C   0  0  0  0  0  0  0  0  0  0  0  0
    2.6125    1.5125    0.0000 N   0  0  0  0  0  0  0  0  0  0  0  0
    3.4848    1.0014    0.0000 C   0  0  0  0  0  0  0  0  0  0  0  0
    3.4805   -0.0073    0.0000 C   0  0  0  0  0  0  0  0  0  0  0  0
    2.6039   -0.5053    0.0000 C   0  0  0  0  0  0  0  0  0  0  0  0
    2.5983   -1.5053    0.0000 N   0  0  0  0  0  0  0  0  0  0  0  0
    1.7371   -0.0000    0.0000 C   0  0  0  0  0  0  0  0  0  0  0  0
    0.8707   -0.4993    0.0000 C   0  0  0  0  0  0  0  0  0  0  0  0
    0.0000    0.0000    0.0000 C   0  0  0  0  0  0  0  0  0  0  0  0
   -0.0000    1.0089    0.0000 C   0  0  0  0  0  0  0  0  0  0  0  0
    0.8707    1.5185    0.0000 C   0  0  0  0  0  0  0  0  0  0  0  0
    1.7414    1.0089    0.0000 C   0  0  0  0  0  0  0  0  0  0  0  0
  1  2  1  0  0  0  0
  2  3  1  0  0  0  0
  3  4  1  0  0  0  0
  4  5  1  0  0  0  0
  5  6  1  0  0  0  0
  6  7  1  0  0  0  0
  4  8  1  0  0  0  0
  8  9  2  0  0  0  0
  8 10  1  0  0  0  0
 10 11  1  0  0  0  0
 11 21  1  0  0  0  0
 11 12  1  0  0  0  0
 12 13  2  0  0  0  0
 13 14  1  0  0  0  0
 14 15  2  3  0  0  0
 14 16  1  0  0  0  0
 16 21  1  0  0  0  0
 16 17  2  0  0  0  0
 17 18  1  0  0  0  0
 18 19  2  0  0  0  0
 19 20  1  0  0  0  0
 20 21  2  0  0  0  0
M  END
> <JC_XSMILES>
CCCN(CCC)C(=O)CN1C=CC(=N)C2=CC=CC=C12

> <GNF-Pf identifier>
GNF-Pf-4223

> <PF proliferation inhibition 3D7 EC50 uM>
1.195

> <W2 Pf proliferation inhibition EC50 uM >
0.671

> <Huh7 cytotox for Pf inhibitiors CC50 uM>
>100

> <Powder data?>
Yes

> <IFI value>
0

> <Salt>
Hydrochloride

> <Equiv of salt>
1

$$$$

  -OEChem-06281415292D

 28 30  0     1  0  0  0  0  0999 V2000
    3.5983   -1.5109    0.0000 O   0  0  0  0  0  0  0  0  0  0  0  0
    2.5983   -1.5053    0.0000 C   0  0  1  0  0  0  0  0  0  0  0  0
    1.5983   -1.4997    0.0000 H   0  0  0  0  0  0  0  0  0  0  0  0
    2.5886   -3.2553    0.0000 C   0  0  2  0  0  0  0  0  0  0  0  0
    3.5740   -3.0852    0.0000 H   0  0  0  0  0  0  0  0  0  0  0  0
    2.9308   -4.2004    0.0000 C   0  0  0  0  0  0  0  0  0  0  0  0
    2.2845   -4.9635    0.0000 C   0  0  0  0  0  0  0  0  0  0  0  0
    1.2995   -4.7911    0.0000 C   0  0  0  0  0  0  0  0  0  0  0  0
    0.9572   -3.8460    0.0000 C   0  0  0  0  0  0  0  0  0  0  0  0
    1.6000   -3.0733    0.0000 N   0  0  0  0  0  0  0  0  0  0  0  0
    2.6039   -0.5053    0.0000 C   0  0  0  0  0  0  0  0  0  0  0  0
    3.4805   -0.0073    0.0000 C   0  0  0  0  0  0  0  0  0  0  0  0
    3.4848    1.0014    0.0000 C   0  0  0  0  0  0  0  0  0  0  0  0
    2.6125    1.5125    0.0000 N   0  0  0  0  0  0  0  0  0  0  0  0
    1.7414    1.0089    0.0000 C   0  0  0  0  0  0  0  0  0  0  0  0
    0.8707    1.5185    0.0000 C   0  0  0  0  0  0  0  0  0  0  0  0
    0.0000    1.0089    0.0000 C   0  0  0  0  0  0  0  0  0  0  0  0
    0.0000    0.0000    0.0000 C   0  0  0  0  0  0  0  0  0  0  0  0
    0.8707   -0.4993    0.0000 C   0  0  0  0  0  0  0  0  0  0  0  0
    1.7371    0.0000    0.0000 C   0  0  0  0  0  0  0  0  0  0  0  0
    0.8707    2.5185    0.0000 C   0  0  0  0  0  0  0  0  0  0  0  0
   -0.1293    2.5185    0.0000 F   0  0  0  0  0  0  0  0  0  0  0  0
    1.8707    2.5185    0.0000 F   0  0  0  0  0  0  0  0  0  0  0  0
    0.8707    3.5185    0.0000 F   0  0  0  0  0  0  0  0  0  0  0  0
    4.3535    1.4968    0.0000 C   0  0  0  0  0  0  0  0  0  0  0  0
    3.8581    2.3655    0.0000 F   0  0  0  0  0  0  0  0  0  0  0  0
    4.8489    0.6281    0.0000 F   0  0  0  0  0  0  0  0  0  0  0  0
    5.2222    1.9921    0.0000 F   0  0  0  0  0  0  0  0  0  0  0  0
  1  2  1  0  0  0  0
  2  3  1  6  0  0  0
  2  4  1  0  0  0  0
  4  5  1  1  0  0  0
  4 10  1  0  0  0  0
  4  6  1  0  0  0  0
  6  7  1  0  0  0  0
  7  8  1  0  0  0  0
  8  9  1  0  0  0  0
  9 10  1  0  0  0  0
  2 11  1  0  0  0  0
 11 20  1  0  0  0  0
 11 12  2  0  0  0  0
 12 13  1  0  0  0  0
 13 14  2  0  0  0  0
 14 15  1  0  0  0  0
 15 20  1  0  0  0  0
 15 16  2  0  0  0  0
 16 17  1  0  0  0  0
 17 18  2  0  0  0  0
 18 19  1  0  0  0  0
 19 20  2  0  0  0  0
 16 21  1  0  0  0  0
 21 22  1  0  0  0  0
 21 23  1  0  0  0  0
 21 24  1  0  0  0  0
 13 25  1  0  0  0  0
 25 26  1  0  0  0  0
 25 27  1  0  0  0  0
 25 28  1  0  0  0  0
M  END
> <JC_XSMILES>
O[C@@H]([C@@H]1CCCCN1)C2=CC(=NC3=C(C=CC=C23)C(F)(F)F)C(F)(F)F

> <GNF-Pf identifier>
GNF-Pf-5559

> <PF proliferation inhibition 3D7 EC50 uM>
0.0517

> <W2 Pf proliferation inhibition EC50 uM >
0.002372

> <Huh7 cytotox for Pf inhibitiors CC50 uM>
>6.25

> <Powder data?>
No

> <IFI value>
0.018181818

> <Salt>
Hydrochloride

> <Equiv of salt>
1

$$$$

  -OEChem-06281415292D

 16 17  0     0  0  0  0  0  0999 V2000
    2.3336   -2.0067    0.0000 C   0  0  0  0  0  0  0  0  0  0  0  0
    3.0028   -1.2636    0.0000 C   0  0  0  0  0  0  0  0  0  0  0  0
    2.6938   -0.3125    0.0000 N   0  3  0  0  0  0  0  0  0  0  0  0
    3.2858    0.5023    0.0000 C   0  0  0  0  0  0  0  0  0  0  0  0
    2.6938    1.3169    0.0000 S   0  0  0  0  0  0  0  0  0  0  0  0
    1.7360    1.0058    0.0000 C   0  0  0  0  0  0  0  0  0  0  0  0
    0.8680    1.5138    0.0000 C   0  0  0  0  0  0  0  0  0  0  0  0
    0.0000    1.0058    0.0000 C   0  0  0  0  0  0  0  0  0  0  0  0
    0.0000    0.0000    0.0000 C   0  0  0  0  0  0  0  0  0  0  0  0
    0.8680   -0.4978    0.0000 C   0  0  0  0  0  0  0  0  0  0  0  0
    1.7360   -0.0012    0.0000 C   0  0  0  0  0  0  0  0  0  0  0  0
    4.2858    0.5024    0.0000 C   0  0  0  0  0  0  0  0  0  0  0  0
    4.7857    1.3684    0.0000 C   0  0  0  0  0  0  0  0  0  0  0  0
    5.7857    1.3685    0.0000 N   0  0  0  0  0  0  0  0  0  0  0  0
    6.2857    2.2345    0.0000 C   0  0  0  0  0  0  0  0  0  0  0  0
    6.2858    0.5025    0.0000 C   0  0  0  0  0  0  0  0  0  0  0  0
  1  2  1  0  0  0  0
  2  3  1  0  0  0  0
  3 11  1  0  0  0  0
  3  4  2  0  0  0  0
  4  5  1  0  0  0  0
  5  6  1  0  0  0  0
  6 11  1  0  0  0  0
  6  7  2  0  0  0  0
  7  8  1  0  0  0  0
  8  9  2  0  0  0  0
  9 10  1  0  0  0  0
 10 11  2  0  0  0  0
  4 12  1  0  0  0  0
 12 13  2  0  0  0  0
 13 14  1  0  0  0  0
 14 15  1  0  0  0  0
 14 16  1  0  0  0  0
M  CHG  1   3   1
M  END
> <JC_XSMILES>
CC[N+]1=C(SC2=CC=CC=C12)\C=C\N(C)C

> <GNF-Pf identifier>
GNF-Pf-2099

> <PF proliferation inhibition 3D7 EC50 uM>
0.443

> <W2 Pf proliferation inhibition EC50 uM >
0.462

> <Huh7 cytotox for Pf inhibitiors CC50 uM>
>10

> <Powder data?>
No

> <IFI value>
0.046153846

> <Salt>
Hydroiodide

> <Equiv of salt>
1

$$$$

  -OEChem-06281415292D

 17 19  0     0  0  0  0  0  0999 V2000
   -1.7320   -0.0025    0.0000 C   0  0  0  0  0  0  0  0  0  0  0  0
   -0.8653   -0.5013    0.0000 C   0  0  0  0  0  0  0  0  0  0  0  0
    0.0000    0.0000    0.0000 C   0  0  0  0  0  0  0  0  0  0  0  0
    0.0000    1.0089    0.0000 N   0  3  0  0  0  0  0  0  0  0  0  0
   -0.8675    1.5063    0.0000 C   0  0  0  0  0  0  0  0  0  0  0  0
    0.8707    1.5185    0.0000 C   0  0  0  0  0  0  0  0  0  0  0  0
    1.7393    1.0052    0.0000 C   0  0  0  0  0  0  0  0  0  0  0  0
    2.6132    1.4980    0.0000 C   0  0  0  0  0  0  0  0  0  0  0  0
    3.4848    1.0014    0.0000 C   0  0  0  0  0  0  0  0  0  0  0  0
    3.4805   -0.0074    0.0000 C   0  0  0  0  0  0  0  0  0  0  0  0
    2.6039   -0.5053    0.0000 C   0  0  0  0  0  0  0  0  0  0  0  0
    1.7371   -0.0000    0.0000 C   0  0  0  0  0  0  0  0  0  0  0  0
    0.8707   -0.4993    0.0000 N   0  0  0  0  0  0  0  0  0  0  0  0
    0.8718   -1.4993    0.0000 C   0  0  0  0  0  0  0  0  0  0  0  0
    2.6262    2.5061    0.0000 C   0  0  0  0  0  0  0  0  0  0  0  0
    1.7576    3.0193    0.0000 C   0  0  0  0  0  0  0  0  0  0  0  0
    0.8761    2.5245    0.0000 C   0  0  0  0  0  0  0  0  0  0  0  0
  1  2  1  0  0  0  0
  2  3  1  0  0  0  0
  3 13  1  0  0  0  0
  3  4  2  0  0  0  0
  4  5  1  0  0  0  0
  4  6  1  0  0  0  0
  6 17  1  0  0  0  0
  6  7  2  0  0  0  0
  7 12  1  0  0  0  0
  7  8  1  0  0  0  0
  8  9  1  0  0  0  0
  9 10  2  0  0  0  0
 10 11  1  0  0  0  0
 11 12  2  0  0  0  0
 12 13  1  0  0  0  0
 13 14  1  0  0  0  0
  8 15  2  0  0  0  0
 15 16  1  0  0  0  0
 16 17  2  0  0  0  0
M  CHG  1   4   1
M  END
> <JC_XSMILES>
CCC1=[N+](C)C2=C3C(C=CC=C3N1C)=CC=C2

> <GNF-Pf identifier>
GNF-Pf-4123

> <PF proliferation inhibition 3D7 EC50 uM>
0.958

> <W2 Pf proliferation inhibition EC50 uM >
0.739

> <Huh7 cytotox for Pf inhibitiors CC50 uM>
>100

> <Powder data?>
Yes

> <IFI value>
0.03125

> <Salt>
Iodide

> <Equiv of salt>
1

$$$$

  -OEChem-06281415292D

 20 22  0     0  0  0  0  0  0999 V2000
    6.2935    0.5010    0.0000 C   0  0  0  0  0  0  0  0  0  0  0  0
    5.7909    1.3655    0.0000 N   0  0  0  0  0  0  0  0  0  0  0  0
    6.2857    2.2404    0.0000 C   0  0  0  0  0  0  0  0  0  0  0  0
    5.7805    3.1094    0.0000 C   0  0  0  0  0  0  0  0  0  0  0  0
    4.7805    3.1035    0.0000 C   0  0  0  0  0  0  0  0  0  0  0  0
    4.2805    2.2374    0.0000 C   0  0  0  0  0  0  0  0  0  0  0  0
    4.7857    1.3684    0.0000 C   0  0  0  0  0  0  0  0  0  0  0  0
    4.2858    0.5024    0.0000 C   0  0  0  0  0  0  0  0  0  0  0  0
    3.2858    0.5023    0.0000 C   0  0  0  0  0  0  0  0  0  0  0  0
    2.6938   -0.3125    0.0000 N   0  3  0  0  0  0  0  0  0  0  0  0
    3.0028   -1.2636    0.0000 C   0  0  0  0  0  0  0  0  0  0  0  0
    3.9809   -1.4715    0.0000 C   0  0  0  0  0  0  0  0  0  0  0  0
    4.2899   -2.4226    0.0000 C   0  0  0  0  0  0  0  0  0  0  0  0
    1.7360   -0.0012    0.0000 C   0  0  0  0  0  0  0  0  0  0  0  0
    0.8680   -0.4978    0.0000 C   0  0  0  0  0  0  0  0  0  0  0  0
    0.0000    0.0000    0.0000 C   0  0  0  0  0  0  0  0  0  0  0  0
    0.0000    1.0058    0.0000 C   0  0  0  0  0  0  0  0  0  0  0  0
    0.8680    1.5138    0.0000 C   0  0  0  0  0  0  0  0  0  0  0  0
    1.7360    1.0058    0.0000 C   0  0  0  0  0  0  0  0  0  0  0  0
    2.6938    1.3169    0.0000 S   0  0  0  0  0  0  0  0  0  0  0  0
  1  2  1  0  0  0  0
  2  7  1  0  0  0  0
  2  3  1  0  0  0  0
  3  4  2  0  0  0  0
  4  5  1  0  0  0  0
  5  6  2  0  0  0  0
  6  7  1  0  0  0  0
  7  8  2  3  0  0  0
  8  9  1  0  0  0  0
  9 20  1  0  0  0  0
  9 10  2  0  0  0  0
 10 11  1  0  0  0  0
 11 12  1  0  0  0  0
 12 13  2  0  0  0  0
 10 14  1  0  0  0  0
 14 19  1  0  0  0  0
 14 15  2  0  0  0  0
 15 16  1  0  0  0  0
 16 17  2  0  0  0  0
 17 18  1  0  0  0  0
 18 19  2  0  0  0  0
 19 20  1  0  0  0  0
M  CHG  1  10   1
M  END
> <JC_XSMILES>
CN1C=CC=CC1=CC2=[N+](CC=C)C3=CC=CC=C3S2

> <GNF-Pf identifier>
GNF-Pf-4595

> <PF proliferation inhibition 3D7 EC50 uM>
0.2814

> <W2 Pf proliferation inhibition EC50 uM >
0.403

> <Huh7 cytotox for Pf inhibitiors CC50 uM>
>100

> <Powder data?>
Yes

> <IFI value>
N/A

> <Salt>
Iodide

> <Equiv of salt>
1

$$$$

  -OEChem-06281415292D

 18 20  0     0  0  0  0  0  0999 V2000
    3.0028   -1.2636    0.0000 C   0  0  0  0  0  0  0  0  0  0  0  0
    2.6938   -0.3125    0.0000 N   0  0  0  0  0  0  0  0  0  0  0  0
    3.2858    0.5023    0.0000 C   0  0  0  0  0  0  0  0  0  0  0  0
    2.6938    1.3169    0.0000 S   0  0  0  0  0  0  0  0  0  0  0  0
    1.7360    1.0058    0.0000 C   0  0  0  0  0  0  0  0  0  0  0  0
    0.8680    1.5138    0.0000 C   0  0  0  0  0  0  0  0  0  0  0  0
    0.0000    1.0058    0.0000 C   0  0  0  0  0  0  0  0  0  0  0  0
    0.0000    0.0000    0.0000 C   0  0  0  0  0  0  0  0  0  0  0  0
    0.8680   -0.4978    0.0000 C   0  0  0  0  0  0  0  0  0  0  0  0
    1.7360   -0.0012    0.0000 C   0  0  0  0  0  0  0  0  0  0  0  0
    4.2858    0.5024    0.0000 C   0  0  0  0  0  0  0  0  0  0  0  0
    4.7857    1.3684    0.0000 C   0  0  0  0  0  0  0  0  0  0  0  0
    4.2805    2.2374    0.0000 C   0  0  0  0  0  0  0  0  0  0  0  0
    4.7805    3.1035    0.0000 C   0  0  0  0  0  0  0  0  0  0  0  0
    5.7805    3.1094    0.0000 C   0  0  0  0  0  0  0  0  0  0  0  0
    6.2857    2.2404    0.0000 C   0  0  0  0  0  0  0  0  0  0  0  0
    5.7909    1.3655    0.0000 N   0  3  0  0  0  0  0  0  0  0  0  0
    6.2935    0.5010    0.0000 C   0  0  0  0  0  0  0  0  0  0  0  0
  1  2  1  0  0  0  0
  2 10  1  0  0  0  0
  2  3  1  0  0  0  0
  3  4  1  0  0  0  0
  4  5  1  0  0  0  0
  5 10  1  0  0  0  0
  5  6  2  0  0  0  0
  6  7  1  0  0  0  0
  7  8  2  0  0  0  0
  8  9  1  0  0  0  0
  9 10  2  0  0  0  0
  3 11  2  3  0  0  0
 11 12  1  0  0  0  0
 12 17  1  0  0  0  0
 12 13  2  0  0  0  0
 13 14  1  0  0  0  0
 14 15  2  0  0  0  0
 15 16  1  0  0  0  0
 16 17  2  0  0  0  0
 17 18  1  0  0  0  0
M  CHG  1  17   1
M  END
> <JC_XSMILES>
CN1C(SC2=CC=CC=C12)=CC3=CC=CC=[N+]3C

> <GNF-Pf identifier>
GNF-Pf-4832

> <PF proliferation inhibition 3D7 EC50 uM>
0.2302

> <W2 Pf proliferation inhibition EC50 uM >
0.2927

> <Huh7 cytotox for Pf inhibitiors CC50 uM>
>100

> <Powder data?>
Yes

> <IFI value>
N/A

> <Salt>
Iodide

> <Equiv of salt>
1

$$$$

  -OEChem-06281415292D

 36 39  0     1  0  0  0  0  0999 V2000
    5.8518    2.6378    0.0000 C   0  0  0  0  0  0  0  0  0  0  0  0
    4.9858    3.1377    0.0000 C   0  0  0  0  0  0  0  0  0  0  0  0
    4.9857    4.1377    0.0000 C   0  0  0  0  0  0  0  0  0  0  0  0
    4.1198    2.6376    0.0000 C   0  0  0  0  0  0  0  0  0  0  0  0
    3.2537    3.1376    0.0000 C   0  0  0  0  0  0  0  0  0  0  0  0
    3.2536    4.1376    0.0000 O   0  0  0  0  0  0  0  0  0  0  0  0
    2.3877    2.6375    0.0000 O   0  0  0  0  0  0  0  0  0  0  0  0
    0.8721    3.5124    0.0000 C   0  0  3  0  0  0  0  0  0  0  0  0
   -0.0000    3.0104    0.0000 C   0  0  3  0  0  0  0  0  0  0  0  0
   -0.0000    2.0104    0.0000 N   0  0  0  0  0  0  0  0  0  0  0  0
   -0.8675    1.5027    0.0000 C   0  0  0  0  0  0  0  0  0  0  0  0
   -0.8675    0.4975    0.0000 C   0  0  0  0  0  0  0  0  0  0  0  0
    0.0000    0.0000    0.0000 C   0  0  0  0  0  0  0  0  0  0  0  0
    0.8675    0.4975    0.0000 C   0  0  0  0  0  0  0  0  0  0  0  0
    0.8675    1.5027    0.0000 C   0  0  0  0  0  0  0  0  0  0  0  0
   -0.8680    3.5100    0.0000 C   0  0  0  0  0  0  0  0  0  0  0  0
   -1.7346    3.0110    0.0000 C   0  0  0  0  0  0  0  0  0  0  0  0
   -1.7324    2.0110    0.0000 O   0  0  0  0  0  0  0  0  0  0  0  0
   -2.6040    3.5064    0.0000 C   0  0  0  0  0  0  0  0  0  0  0  0
   -3.4679    3.0028    0.0000 C   0  0  0  0  0  0  0  0  0  0  0  0
   -3.4637    2.0028    0.0000 C   0  0  0  0  0  0  0  0  0  0  0  0
   -4.3276    1.4992    0.0000 C   0  0  0  0  0  0  0  0  0  0  0  0
   -5.1957    1.9956    0.0000 O   0  0  0  0  0  0  0  0  0  0  0  0
   -4.3234    0.4992    0.0000 N   0  0  0  0  0  0  0  0  0  0  0  0
   -5.1888   -0.0121    0.0000 C   0  0  0  0  0  0  0  0  0  0  0  0
   -5.1846   -1.0173    0.0000 C   0  0  0  0  0  0  0  0  0  0  0  0
   -4.3150   -1.5112    0.0000 C   0  0  0  0  0  0  0  0  0  0  0  0
   -3.4496   -1.0100    0.0000 C   0  0  0  0  0  0  0  0  0  0  0  0
   -3.4538   -0.0049    0.0000 C   0  0  0  0  0  0  0  0  0  0  0  0
   -2.6067    4.5121    0.0000 C   0  0  0  0  0  0  0  0  0  0  0  0
   -1.7401    5.0226    0.0000 C   0  0  0  0  0  0  0  0  0  0  0  0
   -0.8693    4.5169    0.0000 C   0  0  0  0  0  0  0  0  0  0  0  0
   -0.0029    5.0245    0.0000 O   0  0  0  0  0  0  0  0  0  0  0  0
    0.8707    4.5194    0.0000 C   0  0  0  0  0  0  0  0  0  0  0  0
    1.2126    5.4591    0.0000 C   0  0  0  0  0  0  0  0  0  0  0  0
    1.8556    4.3465    0.0000 C   0  0  0  0  0  0  0  0  0  0  0  0
  1  2  1  0  0  0  0
  2  3  1  0  0  0  0
  2  4  1  0  0  0  0
  4  5  1  0  0  0  0
  5  6  2  0  0  0  0
  5  7  1  0  0  0  0
  7  8  1  0  0  0  0
  8 34  1  0  0  0  0
  8  9  1  0  0  0  0
  9 10  1  0  0  0  0
 10 15  1  0  0  0  0
 10 11  1  0  0  0  0
 11 12  1  0  0  0  0
 12 13  1  0  0  0  0
 13 14  1  0  0  0  0
 14 15  1  0  0  0  0
  9 16  1  0  0  0  0
 16 32  1  0  0  0  0
 16 17  2  0  0  0  0
 17 18  1  0  0  0  0
 17 19  1  0  0  0  0
 19 20  1  0  0  0  0
 20 21  2  0  0  0  0
 21 22  1  0  0  0  0
 22 23  2  0  0  0  0
 22 24  1  0  0  0  0
 24 29  1  0  0  0  0
 24 25  1  0  0  0  0
 25 26  1  0  0  0  0
 26 27  1  0  0  0  0
 27 28  1  0  0  0  0
 28 29  1  0  0  0  0
 19 30  2  0  0  0  0
 30 31  1  0  0  0  0
 31 32  2  0  0  0  0
 32 33  1  0  0  0  0
 33 34  1  0  0  0  0
 34 35  1  0  0  0  0
 34 36  1  0  0  0  0
M  END
> <JC_XSMILES>
CC(C)CC(=O)OC1C(N2CCCCC2)C3=C(O)C(\C=C\C(=O)N4CCCCC4)=CC=C3OC1(C)C

> <GNF-Pf identifier>
GNF-Pf-1160

> <PF proliferation inhibition 3D7 EC50 uM>
0.92

> <W2 Pf proliferation inhibition EC50 uM >
0.975

> <Huh7 cytotox for Pf inhibitiors CC50 uM>
>10

> <Powder data?>
No

> <IFI value>
0

> <Salt>
No salt

> <Equiv of salt>
0

$$$$

  -OEChem-06281415292D

 23 24  0     0  0  0  0  0  0999 V2000
   -1.7379    3.0001    0.0000 C   0  0  0  0  0  0  0  0  0  0  0  0
   -1.7350    2.0001    0.0000 O   0  0  0  0  0  0  0  0  0  0  0  0
   -0.8675    1.5027    0.0000 C   0  0  0  0  0  0  0  0  0  0  0  0
   -0.8675    0.4975    0.0000 C   0  0  0  0  0  0  0  0  0  0  0  0
    0.0000    0.0000    0.0000 C   0  0  0  0  0  0  0  0  0  0  0  0
    0.8675    0.4975    0.0000 C   0  0  0  0  0  0  0  0  0  0  0  0
    1.7328   -0.0038    0.0000 O   0  0  0  0  0  0  0  0  0  0  0  0
    2.5995    0.4950    0.0000 C   0  0  0  0  0  0  0  0  0  0  0  0
    0.8675    1.5027    0.0000 C   0  0  0  0  0  0  0  0  0  0  0  0
   -0.0000    2.0104    0.0000 C   0  0  0  0  0  0  0  0  0  0  0  0
    1.7350    2.0001    0.0000 C   0  0  0  0  0  0  0  0  0  0  0  0
    2.6025    1.4924    0.0000 C   0  0  0  0  0  0  0  0  0  0  0  0
    3.4701    1.9898    0.0000 C   0  0  0  0  0  0  0  0  0  0  0  0
    3.4789    2.9898    0.0000 C   0  0  0  0  0  0  0  0  0  0  0  0
    4.3486    3.4834    0.0000 O   0  0  0  0  0  0  0  0  0  0  0  0
    2.6113    3.4976    0.0000 C   0  0  0  0  0  0  0  0  0  0  0  0
    2.6202    4.4975    0.0000 C   0  0  0  0  0  0  0  0  0  0  0  0
    1.7586    5.0052    0.0000 N   0  0  0  0  0  0  0  0  0  0  0  0
    1.7675    6.0051    0.0000 C   0  0  0  0  0  0  0  0  0  0  0  0
    0.9059    6.5128    0.0000 C   0  0  0  0  0  0  0  0  0  0  0  0
    0.0355    6.0204    0.0000 C   0  0  0  0  0  0  0  0  0  0  0  0
    0.9148    7.5127    0.0000 C   0  0  0  0  0  0  0  0  0  0  0  0
    1.7350    3.0053    0.0000 C   0  0  0  0  0  0  0  0  0  0  0  0
  1  2  1  0  0  0  0
  2  3  1  0  0  0  0
  3 10  1  0  0  0  0
  3  4  2  0  0  0  0
  4  5  1  0  0  0  0
  5  6  2  0  0  0  0
  6  7  1  0  0  0  0
  7  8  1  0  0  0  0
  6  9  1  0  0  0  0
  9 10  2  0  0  0  0
  9 11  1  0  0  0  0
 11 23  1  0  0  0  0
 11 12  2  0  0  0  0
 12 13  1  0  0  0  0
 13 14  2  0  0  0  0
 14 15  1  0  0  0  0
 14 16  1  0  0  0  0
 16 17  1  0  0  0  0
 17 18  1  0  0  0  0
 18 19  1  0  0  0  0
 19 20  1  0  0  0  0
 20 21  1  0  0  0  0
 20 22  1  0  0  0  0
 16 23  2  0  0  0  0
M  END
> <JC_XSMILES>
COC1=CC=C(OC)C(=C1)C2=CC=C(O)C(CNCC(C)C)=C2

> <GNF-Pf identifier>
GNF-Pf-1479

> <PF proliferation inhibition 3D7 EC50 uM>
0.95

> <W2 Pf proliferation inhibition EC50 uM >
0.773

> <Huh7 cytotox for Pf inhibitiors CC50 uM>
>10

> <Powder data?>
No

> <IFI value>
0.025862069

> <Salt>
No salt

> <Equiv of salt>
0

$$$$

  -OEChem-06281415292D

 35 38  0     1  0  0  0  0  0999 V2000
   -5.6329    1.1093    0.0000 C   0  0  0  0  0  0  0  0  0  0  0  0
   -4.6386    1.2161    0.0000 C   0  0  0  0  0  0  0  0  0  0  0  0
   -3.9700    0.4724    0.0000 C   0  0  0  0  0  0  0  0  0  0  0  0
   -3.0559    0.8815    0.0000 C   0  0  0  0  0  0  0  0  0  0  0  0
   -3.1601    1.8777    0.0000 C   0  0  0  0  0  0  0  0  0  0  0  0
   -4.1431    2.0852    0.0000 O   0  0  0  0  0  0  0  0  0  0  0  0
   -2.4172    2.5472    0.0000 C   0  0  3  0  0  0  0  0  0  0  0  0
   -1.4660    2.2386    0.0000 N   0  0  0  0  0  0  0  0  0  0  0  0
   -1.2577    1.2605    0.0000 C   0  0  0  0  0  0  0  0  0  0  0  0
   -2.0005    0.5910    0.0000 O   0  0  0  0  0  0  0  0  0  0  0  0
   -0.3065    0.9519    0.0000 C   0  0  0  0  0  0  0  0  0  0  0  0
    0.0000    0.0000    0.0000 C   0  0  0  0  0  0  0  0  0  0  0  0
   -0.5889   -0.8082    0.0000 N   0  0  0  0  0  0  0  0  0  0  0  0
    1.0015    0.0000    0.0000 C   0  0  0  0  0  0  0  0  0  0  0  0
    1.3133    0.9519    0.0000 N   0  0  0  0  0  0  0  0  0  0  0  0
    0.5008    1.5428    0.0000 S   0  0  0  0  0  0  0  0  0  0  0  0
    1.5883   -0.8097    0.0000 C   0  0  0  0  0  0  0  0  0  0  0  0
    2.5830   -0.7064    0.0000 N   0  0  0  0  0  0  0  0  0  0  0  0
    1.1805   -1.7228    0.0000 O   0  0  0  0  0  0  0  0  0  0  0  0
   -0.7232    2.9080    0.0000 C   0  0  0  0  0  0  0  0  0  0  0  0
    0.2320    2.5950    0.0000 C   0  0  0  0  0  0  0  0  0  0  0  0
    0.9749    3.2644    0.0000 C   0  0  0  0  0  0  0  0  0  0  0  0
    0.7723    4.2437    0.0000 C   0  0  0  0  0  0  0  0  0  0  0  0
   -0.1829    4.5567    0.0000 C   0  0  0  0  0  0  0  0  0  0  0  0
   -0.9355    3.8905    0.0000 C   0  0  0  0  0  0  0  0  0  0  0  0
   -2.6256    3.5252    0.0000 C   0  0  0  0  0  0  0  0  0  0  0  0
   -3.5768    3.8338    0.0000 O   0  0  0  0  0  0  0  0  0  0  0  0
   -1.8827    4.1947    0.0000 N   0  0  0  0  0  0  0  0  0  0  0  0
   -2.0910    5.1727    0.0000 C   0  0  0  0  0  0  0  0  0  0  0  0
   -1.3482    5.8422    0.0000 C   0  0  0  0  0  0  0  0  0  0  0  0
   -0.3930    5.5292    0.0000 C   0  0  0  0  0  0  0  0  0  0  0  0
    0.3499    6.1986    0.0000 C   0  0  0  0  0  0  0  0  0  0  0  0
    0.1473    7.1779    0.0000 C   0  0  0  0  0  0  0  0  0  0  0  0
   -0.8079    7.4909    0.0000 C   0  0  0  0  0  0  0  0  0  0  0  0
   -1.5605    6.8247    0.0000 C   0  0  0  0  0  0  0  0  0  0  0  0
  1  2  1  0  0  0  0
  2  6  1  0  0  0  0
  2  3  2  0  0  0  0
  3  4  1  0  0  0  0
  4  5  2  0  0  0  0
  5  6  1  0  0  0  0
  5  7  1  0  0  0  0
  7  8  1  0  0  0  0
  8  9  1  0  0  0  0
  9 10  2  0  0  0  0
  9 11  1  0  0  0  0
 11 16  1  0  0  0  0
 11 12  2  0  0  0  0
 12 13  1  0  0  0  0
 12 14  1  0  0  0  0
 14 15  2  0  0  0  0
 15 16  1  0  0  0  0
 14 17  1  0  0  0  0
 17 18  1  0  0  0  0
 17 19  2  0  0  0  0
  8 20  1  0  0  0  0
 20 25  1  0  0  0  0
 20 21  2  0  0  0  0
 21 22  1  0  0  0  0
 22 23  2  0  0  0  0
 23 24  1  0  0  0  0
 24 25  2  0  0  0  0
  7 26  1  0  0  0  0
 26 27  2  0  0  0  0
 26 28  1  0  0  0  0
 28 29  1  0  0  0  0
 29 30  1  0  0  0  0
 30 35  1  0  0  0  0
 30 31  2  0  0  0  0
 31 32  1  0  0  0  0
 32 33  2  0  0  0  0
 33 34  1  0  0  0  0
 34 35  2  0  0  0  0
M  END
> <JC_XSMILES>
CC1=CC=C(O1)C(N(C(=O)C2=C(N)C(=NS2)C(N)=O)C3=CC=CC=C3)C(=O)NCC4=CC=CC=C4

> <GNF-Pf identifier>
GNF-Pf-1510

> <PF proliferation inhibition 3D7 EC50 uM>
1.229

> <W2 Pf proliferation inhibition EC50 uM >
>0.755

> <Huh7 cytotox for Pf inhibitiors CC50 uM>
>10

> <Powder data?>
No

> <IFI value>
0.046728972

> <Salt>
No salt

> <Equiv of salt>
0

$$$$

  -OEChem-06281415292D

 37 41  0     1  0  0  0  0  0999 V2000
   -4.3094   -3.5117    0.0000 C   0  0  0  0  0  0  0  0  0  0  0  0
   -3.4463   -3.0066    0.0000 O   0  0  0  0  0  0  0  0  0  0  0  0
   -3.4522   -2.0066    0.0000 C   0  0  0  0  0  0  0  0  0  0  0  0
   -2.5877   -1.5040    0.0000 C   0  0  0  0  0  0  0  0  0  0  0  0
   -2.5936   -0.4988    0.0000 C   0  0  0  0  0  0  0  0  0  0  0  0
   -3.4641    0.0038    0.0000 C   0  0  0  0  0  0  0  0  0  0  0  0
   -4.3286   -0.5090    0.0000 C   0  0  0  0  0  0  0  0  0  0  0  0
   -5.1990   -0.0167    0.0000 O   0  0  0  0  0  0  0  0  0  0  0  0
   -6.0606   -0.5244    0.0000 C   0  0  0  0  0  0  0  0  0  0  0  0
   -4.3226   -1.5142    0.0000 C   0  0  0  0  0  0  0  0  0  0  0  0
   -5.1850   -2.0206    0.0000 O   0  0  0  0  0  0  0  0  0  0  0  0
   -5.1776   -3.0206    0.0000 C   0  0  0  0  0  0  0  0  0  0  0  0
   -1.7291    0.0038    0.0000 C   0  0  0  0  0  0  0  0  0  0  0  0
   -0.8616   -0.4937    0.0000 O   0  0  0  0  0  0  0  0  0  0  0  0
   -1.7320    1.0038    0.0000 N   0  0  0  0  0  0  0  0  0  0  0  0
   -0.8675    1.5063    0.0000 C   0  0  3  0  0  0  0  0  0  0  0  0
   -0.8705    2.5063    0.0000 C   0  0  0  0  0  0  0  0  0  0  0  0
    0.0006    3.0093    0.0000 C   0  0  0  0  0  0  0  0  0  0  0  0
   -0.0023    4.0099    0.0000 C   0  0  0  0  0  0  0  0  0  0  0  0
   -0.8664    4.5133    0.0000 C   0  0  0  0  0  0  0  0  0  0  0  0
   -1.0758    5.4984    0.0000 O   0  0  0  0  0  0  0  0  0  0  0  0
   -2.0774    5.6037    0.0000 C   0  0  0  0  0  0  0  0  0  0  0  0
   -2.4868    4.6836    0.0000 O   0  0  0  0  0  0  0  0  0  0  0  0
   -1.7385    4.0097    0.0000 C   0  0  0  0  0  0  0  0  0  0  0  0
   -1.7443    3.0040    0.0000 C   0  0  0  0  0  0  0  0  0  0  0  0
    0.0000    1.0089    0.0000 C   0  0  0  0  0  0  0  0  0  0  0  0
    0.0000    0.0000    0.0000 C   0  0  0  0  0  0  0  0  0  0  0  0
    0.8707   -0.4993    0.0000 C   0  0  0  0  0  0  0  0  0  0  0  0
    0.8718   -1.4993    0.0000 Cl  0  0  0  0  0  0  0  0  0  0  0  0
    1.7371    0.0000    0.0000 C   0  0  0  0  0  0  0  0  0  0  0  0
    2.6039   -0.5053    0.0000 C   0  0  0  0  0  0  0  0  0  0  0  0
    3.4805   -0.0073    0.0000 C   0  0  0  0  0  0  0  0  0  0  0  0
    3.4848    1.0014    0.0000 C   0  0  0  0  0  0  0  0  0  0  0  0
    2.6125    1.5125    0.0000 N   0  0  0  0  0  0  0  0  0  0  0  0
    1.7414    1.0089    0.0000 C   0  0  0  0  0  0  0  0  0  0  0  0
    0.8707    1.5185    0.0000 C   0  0  0  0  0  0  0  0  0  0  0  0
    0.8707    2.5185    0.0000 O   0  0  0  0  0  0  0  0  0  0  0  0
  1  2  1  0  0  0  0
  2  3  1  0  0  0  0
  3 10  1  0  0  0  0
  3  4  2  0  0  0  0
  4  5  1  0  0  0  0
  5  6  2  0  0  0  0
  6  7  1  0  0  0  0
  7  8  1  0  0  0  0
  8  9  1  0  0  0  0
  7 10  2  0  0  0  0
 10 11  1  0  0  0  0
 11 12  1  0  0  0  0
  5 13  1  0  0  0  0
 13 14  2  0  0  0  0
 13 15  1  0  0  0  0
 15 16  1  0  0  0  0
 16 17  1  0  0  0  0
 17 25  1  0  0  0  0
 17 18  2  0  0  0  0
 18 19  1  0  0  0  0
 19 20  2  0  0  0  0
 20 24  1  0  0  0  0
 20 21  1  0  0  0  0
 21 22  1  0  0  0  0
 22 23  1  0  0  0  0
 23 24  1  0  0  0  0
 24 25  2  0  0  0  0
 16 26  1  0  0  0  0
 26 36  1  0  0  0  0
 26 27  2  0  0  0  0
 27 28  1  0  0  0  0
 28 29  1  0  0  0  0
 28 30  2  0  0  0  0
 30 35  1  0  0  0  0
 30 31  1  0  0  0  0
 31 32  2  0  0  0  0
 32 33  1  0  0  0  0
 33 34  2  0  0  0  0
 34 35  1  0  0  0  0
 35 36  2  0  0  0  0
 36 37  1  0  0  0  0
M  END
> <JC_XSMILES>
COC1=CC(=CC(OC)=C1OC)C(=O)NC(C2=CC=C3OCOC3=C2)C4=CC(Cl)=C5C=CC=NC5=C4O

> <GNF-Pf identifier>
GNF-Pf-1600

> <PF proliferation inhibition 3D7 EC50 uM>
0.428

> <W2 Pf proliferation inhibition EC50 uM >
0.698

> <Huh7 cytotox for Pf inhibitiors CC50 uM>
>10

> <Powder data?>
No

> <IFI value>
0

> <Salt>
No salt

> <Equiv of salt>
0

$$$$

  -OEChem-06281415292D

 40 43  0     1  0  0  0  0  0999 V2000
    1.7399    6.0074    0.0000 C   0  0  0  0  0  0  0  0  0  0  0  0
    2.6061    5.5076    0.0000 C   0  0  0  0  0  0  0  0  0  0  0  0
    2.6064    4.5076    0.0000 C   0  0  0  0  0  0  0  0  0  0  0  0
    3.4726    4.0079    0.0000 C   0  0  0  0  0  0  0  0  0  0  0  0
    3.4729    3.0079    0.0000 C   0  0  0  0  0  0  0  0  0  0  0  0
    4.3391    2.5082    0.0000 N   0  0  0  0  0  0  0  0  0  0  0  0
    4.3394    1.5082    0.0000 C   0  0  3  0  0  0  0  0  0  0  0  0
    5.2056    1.0084    0.0000 C   0  0  0  0  0  0  0  0  0  0  0  0
    6.0714    1.5087    0.0000 C   0  0  0  0  0  0  0  0  0  0  0  0
    3.4735    1.0079    0.0000 C   0  0  0  0  0  0  0  0  0  0  0  0
    2.6012    1.5123    0.0000 N   0  0  0  0  0  0  0  0  0  0  0  0
    1.7358    1.0056    0.0000 C   0  0  0  0  0  0  0  0  0  0  0  0
    0.8679    1.5135    0.0000 C   0  0  0  0  0  0  0  0  0  0  0  0
    0.0000    1.0056    0.0000 C   0  0  0  0  0  0  0  0  0  0  0  0
    0.0000    0.0000    0.0000 C   0  0  0  0  0  0  0  0  0  0  0  0
    0.8679   -0.4977    0.0000 C   0  0  0  0  0  0  0  0  0  0  0  0
    1.7371    0.0000    0.0000 C   0  0  0  0  0  0  0  0  0  0  0  0
    2.6038   -0.4989    0.0000 C   0  0  0  0  0  0  0  0  0  0  0  0
    2.6037   -1.4989    0.0000 O   0  0  0  0  0  0  0  0  0  0  0  0
    3.4748    0.0023    0.0000 N   0  0  0  0  0  0  0  0  0  0  0  0
    4.3408   -0.4978    0.0000 C   0  0  0  0  0  0  0  0  0  0  0  0
    5.2076    0.0009    0.0000 C   0  0  0  0  0  0  0  0  0  0  0  0
    6.0758   -0.4954    0.0000 C   0  0  0  0  0  0  0  0  0  0  0  0
    6.0772   -1.5006    0.0000 C   0  0  0  0  0  0  0  0  0  0  0  0
    5.2104   -2.0095    0.0000 C   0  0  0  0  0  0  0  0  0  0  0  0
    4.3422   -1.5030    0.0000 C   0  0  0  0  0  0  0  0  0  0  0  0
    3.4754   -2.0016    0.0000 O   0  0  0  0  0  0  0  0  0  0  0  0
    3.4738   -3.0016    0.0000 C   0  0  0  0  0  0  0  0  0  0  0  0
    5.2049    3.0084    0.0000 C   0  0  0  0  0  0  0  0  0  0  0  0
    6.0711    2.5087    0.0000 O   0  0  0  0  0  0  0  0  0  0  0  0
    5.2046    4.0084    0.0000 C   0  0  0  0  0  0  0  0  0  0  0  0
    4.3324    4.5082    0.0000 C   0  0  0  0  0  0  0  0  0  0  0  0
    4.3321    5.5082    0.0000 C   0  0  0  0  0  0  0  0  0  0  0  0
    5.1950    6.0136    0.0000 C   0  0  0  0  0  0  0  0  0  0  0  0
    6.0672    5.5138    0.0000 C   0  0  0  0  0  0  0  0  0  0  0  0
    6.0764    4.5087    0.0000 C   0  0  0  0  0  0  0  0  0  0  0  0
    6.9301    6.0192    0.0000 C   0  0  0  0  0  0  0  0  0  0  0  0
    7.4355    5.1563    0.0000 F   0  0  0  0  0  0  0  0  0  0  0  0
    6.4247    6.8821    0.0000 F   0  0  0  0  0  0  0  0  0  0  0  0
    7.7930    6.5246    0.0000 F   0  0  0  0  0  0  0  0  0  0  0  0
  1  2  1  0  0  0  0
  2  3  1  0  0  0  0
  3  4  1  0  0  0  0
  4  5  1  0  0  0  0
  5  6  1  0  0  0  0
  6  7  1  0  0  0  0
  7  8  1  0  0  0  0
  8  9  1  0  0  0  0
  7 10  1  0  0  0  0
 10 20  1  0  0  0  0
 10 11  2  0  0  0  0
 11 12  1  0  0  0  0
 12 17  1  0  0  0  0
 12 13  2  0  0  0  0
 13 14  1  0  0  0  0
 14 15  2  0  0  0  0
 15 16  1  0  0  0  0
 16 17  2  0  0  0  0
 17 18  1  0  0  0  0
 18 19  2  0  0  0  0
 18 20  1  0  0  0  0
 20 21  1  0  0  0  0
 21 26  1  0  0  0  0
 21 22  2  0  0  0  0
 22 23  1  0  0  0  0
 23 24  2  0  0  0  0
 24 25  1  0  0  0  0
 25 26  2  0  0  0  0
 26 27  1  0  0  0  0
 27 28  1  0  0  0  0
  6 29  1  0  0  0  0
 29 30  2  0  0  0  0
 29 31  1  0  0  0  0
 31 36  1  0  0  0  0
 31 32  2  0  0  0  0
 32 33  1  0  0  0  0
 33 34  2  0  0  0  0
 34 35  1  0  0  0  0
 35 36  2  0  0  0  0
 35 37  1  0  0  0  0
 37 38  1  0  0  0  0
 37 39  1  0  0  0  0
 37 40  1  0  0  0  0
M  END
> <JC_XSMILES>
CCCCCN(C(CC)C1=NC2=CC=CC=C2C(=O)N1C3=CC=CC=C3OC)C(=O)C4=CC=CC(=C4)C(F)(F)F

> <GNF-Pf identifier>
GNF-Pf-1663

> <PF proliferation inhibition 3D7 EC50 uM>
0.728

> <W2 Pf proliferation inhibition EC50 uM >
0.673

> <Huh7 cytotox for Pf inhibitiors CC50 uM>
>10

> <Powder data?>
No

> <IFI value>
0.009259259

> <Salt>
No salt

> <Equiv of salt>
0

$$$$

  -OEChem-06281415292D

 11 12  0     0  0  0  0  0  0999 V2000
    0.8660    1.5000    0.0000 N   0  0  0  0  0  0  0  0  0  0  0  0
    0.0000    1.0000    0.0000 N   0  0  0  0  0  0  0  0  0  0  0  0
    0.0000    0.0000    0.0000 C   0  0  0  0  0  0  0  0  0  0  0  0
   -0.8680   -0.5079    0.0000 N   0  0  0  0  0  0  0  0  0  0  0  0
   -0.8680   -1.5137    0.0000 C   0  0  0  0  0  0  0  0  0  0  0  0
    0.0000   -2.0116    0.0000 N   0  0  0  0  0  0  0  0  0  0  0  0
    0.8680   -1.5150    0.0000 C   0  0  0  0  0  0  0  0  0  0  0  0
    0.8680   -0.5079    0.0000 C   0  0  0  0  0  0  0  0  0  0  0  0
    1.8258   -0.1969    0.0000 N   0  0  0  0  0  0  0  0  0  0  0  0
    2.4178   -1.0115    0.0000 C   0  0  0  0  0  0  0  0  0  0  0  0
    1.8258   -1.8263    0.0000 N   0  0  0  0  0  0  0  0  0  0  0  0
  1  2  1  0  0  0  0
  2  3  1  0  0  0  0
  3  8  1  0  0  0  0
  3  4  2  0  0  0  0
  4  5  1  0  0  0  0
  5  6  2  0  0  0  0
  6  7  1  0  0  0  0
  7 11  1  0  0  0  0
  7  8  2  0  0  0  0
  8  9  1  0  0  0  0
  9 10  2  0  0  0  0
 10 11  1  0  0  0  0
M  END
> <JC_XSMILES>
NNC1=NC=NC2=C1N=CN2

> <GNF-Pf identifier>
GNF-Pf-1671

> <PF proliferation inhibition 3D7 EC50 uM>
0.3029

> <W2 Pf proliferation inhibition EC50 uM >
0.666

> <Huh7 cytotox for Pf inhibitiors CC50 uM>
>10

> <Powder data?>
No

> <IFI value>
0

> <Salt>
No salt

> <Equiv of salt>
0

$$$$

  -OEChem-06281415292D

 33 35  0     1  0  0  0  0  0999 V2000
    4.3394    1.5081    0.0000 N   0  0  0  0  0  0  0  0  0  0  0  0
    3.4735    1.0079    0.0000 C   0  0  0  0  0  0  0  0  0  0  0  0
    3.4748    0.0022    0.0000 N   0  0  0  0  0  0  0  0  0  0  0  0
    2.6038   -0.4989    0.0000 C   0  0  0  0  0  0  0  0  0  0  0  0
    2.6037   -1.4989    0.0000 N   0  0  0  0  0  0  0  0  0  0  0  0
    1.7371   -0.0000    0.0000 C   0  0  0  0  0  0  0  0  0  0  0  0
    0.8679   -0.4978    0.0000 N   0  0  0  0  0  0  0  0  0  0  0  0
    0.0000    0.0000    0.0000 C   0  0  0  0  0  0  0  0  0  0  0  0
   -0.8653   -0.5012    0.0000 C   0  0  0  0  0  0  0  0  0  0  0  0
   -0.8639   -1.5012    0.0000 C   0  0  0  0  0  0  0  0  0  0  0  0
   -1.7292   -2.0025    0.0000 C   0  0  0  0  0  0  0  0  0  0  0  0
   -1.7248   -3.0076    0.0000 C   0  0  0  0  0  0  0  0  0  0  0  0
   -2.5901   -3.5089    0.0000 C   0  0  0  0  0  0  0  0  0  0  0  0
   -3.4598   -3.0152    0.0000 C   0  0  0  0  0  0  0  0  0  0  0  0
   -3.4642   -2.0100    0.0000 C   0  0  0  0  0  0  0  0  0  0  0  0
   -2.5989   -1.4986    0.0000 C   0  0  0  0  0  0  0  0  0  0  0  0
   -4.3229   -3.5203    0.0000 C   0  0  0  0  0  0  0  0  0  0  0  0
   -5.1918   -3.0253    0.0000 O   0  0  0  0  0  0  0  0  0  0  0  0
   -4.3171   -4.5202    0.0000 N   0  0  0  0  0  0  0  0  0  0  0  0
   -5.1802   -5.0253    0.0000 C   0  0  1  0  0  0  0  0  0  0  0  0
   -6.0433   -5.5303    0.0000 H   0  0  0  0  0  0  0  0  0  0  0  0
   -5.6852   -4.1622    0.0000 C   0  0  0  0  0  0  0  0  0  0  0  0
   -6.6852   -4.1680    0.0000 C   0  0  0  0  0  0  0  0  0  0  0  0
   -7.1902   -3.3049    0.0000 C   0  0  0  0  0  0  0  0  0  0  0  0
   -8.1902   -3.3107    0.0000 O   0  0  0  0  0  0  0  0  0  0  0  0
   -6.6953   -2.4360    0.0000 O   0  0  0  0  0  0  0  0  0  0  0  0
   -4.6751   -5.8884    0.0000 C   0  0  0  0  0  0  0  0  0  0  0  0
   -3.6752   -5.8826    0.0000 O   0  0  0  0  0  0  0  0  0  0  0  0
   -5.1701   -6.7573    0.0000 O   0  0  0  0  0  0  0  0  0  0  0  0
   -0.0000    1.0057    0.0000 C   0  0  0  0  0  0  0  0  0  0  0  0
    0.8679    1.5135    0.0000 N   0  0  0  0  0  0  0  0  0  0  0  0
    1.7358    1.0057    0.0000 C   0  0  0  0  0  0  0  0  0  0  0  0
    2.6012    1.5124    0.0000 N   0  0  0  0  0  0  0  0  0  0  0  0
  1  2  1  0  0  0  0
  2 33  1  0  0  0  0
  2  3  2  0  0  0  0
  3  4  1  0  0  0  0
  4  5  1  0  0  0  0
  4  6  2  0  0  0  0
  6 32  1  0  0  0  0
  6  7  1  0  0  0  0
  7  8  2  0  0  0  0
  8  9  1  0  0  0  0
  9 10  1  0  0  0  0
 10 11  1  0  0  0  0
 11 16  1  0  0  0  0
 11 12  2  0  0  0  0
 12 13  1  0  0  0  0
 13 14  2  0  0  0  0
 14 15  1  0  0  0  0
 15 16  2  0  0  0  0
 14 17  1  0  0  0  0
 17 18  2  0  0  0  0
 17 19  1  0  0  0  0
 19 20  1  0  0  0  0
 20 21  1  1  0  0  0
 20 22  1  0  0  0  0
 22 23  1  0  0  0  0
 23 24  1  0  0  0  0
 24 25  1  0  0  0  0
 24 26  2  0  0  0  0
 20 27  1  0  0  0  0
 27 28  1  0  0  0  0
 27 29  2  0  0  0  0
  8 30  1  0  0  0  0
 30 31  2  0  0  0  0
 31 32  1  0  0  0  0
 32 33  2  0  0  0  0
M  END
> <JC_XSMILES>
NC1=NC(N)=C2N=C(CCC3=CC=C(C=C3)C(=O)N[C@@H](CCC(O)=O)C(O)=O)C=NC2=N1

> <GNF-Pf identifier>
GNF-Pf-173

> <PF proliferation inhibition 3D7 EC50 uM>
0.02953

> <W2 Pf proliferation inhibition EC50 uM >
0.001779

> <Huh7 cytotox for Pf inhibitiors CC50 uM>
0.0081

> <Powder data?>
Yes

> <IFI value>
0.159722222

> <Salt>
No salt

> <Equiv of salt>
0

$$$$

  -OEChem-06281415292D

 34 37  0     0  0  0  0  0  0999 V2000
    6.9510    0.0055    0.0000 C   0  0  0  0  0  0  0  0  0  0  0  0
    6.9474    1.0055    0.0000 O   0  0  0  0  0  0  0  0  0  0  0  0
    6.0796    1.5024    0.0000 C   0  0  0  0  0  0  0  0  0  0  0  0
    6.0790    2.5076    0.0000 C   0  0  0  0  0  0  0  0  0  0  0  0
    5.2112    3.0046    0.0000 C   0  0  0  0  0  0  0  0  0  0  0  0
    5.2105    4.0046    0.0000 O   0  0  0  0  0  0  0  0  0  0  0  0
    4.3442    4.5041    0.0000 C   0  0  0  0  0  0  0  0  0  0  0  0
    4.3440    2.5066    0.0000 C   0  0  0  0  0  0  0  0  0  0  0  0
    4.3446    1.5014    0.0000 C   0  0  0  0  0  0  0  0  0  0  0  0
    5.2124    0.9942    0.0000 C   0  0  0  0  0  0  0  0  0  0  0  0
    3.4774    1.0034    0.0000 N   0  0  0  0  0  0  0  0  0  0  0  0
    3.4761   -0.0036    0.0000 C   0  0  0  0  0  0  0  0  0  0  0  0
    4.3408   -0.5059    0.0000 O   0  0  0  0  0  0  0  0  0  0  0  0
    2.6026   -0.5032    0.0000 N   0  0  0  0  0  0  0  0  0  0  0  0
    2.5998   -1.5032    0.0000 C   0  0  0  0  0  0  0  0  0  0  0  0
    3.4645   -2.0056    0.0000 C   0  0  0  0  0  0  0  0  0  0  0  0
    4.3349   -1.5028    0.0000 C   0  0  0  0  0  0  0  0  0  0  0  0
    5.1996   -2.0052    0.0000 C   0  0  0  0  0  0  0  0  0  0  0  0
    5.2027   -3.0052    0.0000 C   0  0  0  0  0  0  0  0  0  0  0  0
    4.3323   -3.5080    0.0000 C   0  0  0  0  0  0  0  0  0  0  0  0
    3.4588   -3.0107    0.0000 C   0  0  0  0  0  0  0  0  0  0  0  0
    6.0696   -3.5038    0.0000 C   0  0  0  0  0  0  0  0  0  0  0  0
    6.5681   -2.6369    0.0000 C   0  0  0  0  0  0  0  0  0  0  0  0
    5.5710   -4.3706    0.0000 C   0  0  0  0  0  0  0  0  0  0  0  0
    6.9364   -4.0023    0.0000 C   0  0  0  0  0  0  0  0  0  0  0  0
    1.7360   -0.0012    0.0000 C   0  0  0  0  0  0  0  0  0  0  0  0
    0.8680   -0.4978    0.0000 C   0  0  0  0  0  0  0  0  0  0  0  0
    0.0000    0.0000    0.0000 C   0  0  0  0  0  0  0  0  0  0  0  0
    0.0000    1.0057    0.0000 C   0  0  0  0  0  0  0  0  0  0  0  0
    0.8680    1.5138    0.0000 C   0  0  0  0  0  0  0  0  0  0  0  0
    1.7374    1.0057    0.0000 C   0  0  0  0  0  0  0  0  0  0  0  0
    2.6052    1.5109    0.0000 S   0  0  0  0  0  0  0  0  0  0  0  0
    1.9614    2.2761    0.0000 O   0  0  0  0  0  0  0  0  0  0  0  0
    3.2488    2.2763    0.0000 O   0  0  0  0  0  0  0  0  0  0  0  0
  1  2  1  0  0  0  0
  2  3  1  0  0  0  0
  3 10  1  0  0  0  0
  3  4  2  0  0  0  0
  4  5  1  0  0  0  0
  5  6  1  0  0  0  0
  6  7  1  0  0  0  0
  5  8  2  0  0  0  0
  8  9  1  0  0  0  0
  9 10  2  0  0  0  0
  9 11  1  0  0  0  0
 11 32  1  0  0  0  0
 11 12  1  0  0  0  0
 12 13  2  0  0  0  0
 12 14  1  0  0  0  0
 14 15  1  0  0  0  0
 15 16  1  0  0  0  0
 16 21  1  0  0  0  0
 16 17  2  0  0  0  0
 17 18  1  0  0  0  0
 18 19  2  0  0  0  0
 19 20  1  0  0  0  0
 20 21  2  0  0  0  0
 19 22  1  0  0  0  0
 22 23  1  0  0  0  0
 22 24  1  0  0  0  0
 22 25  1  0  0  0  0
 14 26  1  0  0  0  0
 26 31  1  0  0  0  0
 26 27  2  0  0  0  0
 27 28  1  0  0  0  0
 28 29  2  0  0  0  0
 29 30  1  0  0  0  0
 30 31  2  0  0  0  0
 31 32  1  0  0  0  0
 32 33  2  0  0  0  0
 32 34  2  0  0  0  0
M  END
> <JC_XSMILES>
COC1=CC(OC)=CC(=C1)N2C(=O)N(CC3=CC=C(C=C3)C(C)(C)C)C4=CC=CC=C4S2(=O)=O

> <GNF-Pf identifier>
GNF-Pf-1750

> <PF proliferation inhibition 3D7 EC50 uM>
3.75

> <W2 Pf proliferation inhibition EC50 uM >
6.3

> <Huh7 cytotox for Pf inhibitiors CC50 uM>
>100

> <Powder data?>
Yes

> <IFI value>
0

> <Salt>
No salt

> <Equiv of salt>
0

$$$$

  -OEChem-06281415292D

 20 21  0     0  0  0  0  0  0999 V2000
    8.5732   -1.8494    0.0000 C   0  0  0  0  0  0  0  0  0  0  0  0
    7.6204   -2.1529    0.0000 C   0  0  0  0  0  0  0  0  0  0  0  0
    7.4068   -3.1298    0.0000 C   0  0  0  0  0  0  0  0  0  0  0  0
    6.8811   -1.4794    0.0000 C   0  0  0  0  0  0  0  0  0  0  0  0
    5.9243   -1.7873    0.0000 C   0  0  0  0  0  0  0  0  0  0  0  0
    5.1850   -1.1139    0.0000 C   0  0  0  0  0  0  0  0  0  0  0  0
    5.3929   -0.1357    0.0000 C   0  0  0  0  0  0  0  0  0  0  0  0
    4.6507    0.5345    0.0000 C   0  0  0  0  0  0  0  0  0  0  0  0
    3.6992    0.2268    0.0000 C   0  0  0  0  0  0  0  0  0  0  0  0
    2.9570    0.8970    0.0000 C   0  0  0  0  0  0  0  0  0  0  0  0
    3.1663    1.8749    0.0000 O   0  0  0  0  0  0  0  0  0  0  0  0
    2.0055    0.5894    0.0000 N   0  0  0  0  0  0  0  0  0  0  0  0
    1.2633    1.2596    0.0000 C   0  0  0  0  0  0  0  0  0  0  0  0
    0.3118    0.9519    0.0000 C   0  0  0  0  0  0  0  0  0  0  0  0
    0.0000    0.0000    0.0000 C   0  0  0  0  0  0  0  0  0  0  0  0
   -1.0015    0.0000    0.0000 C   0  0  0  0  0  0  0  0  0  0  0  0
   -1.3080    0.9519    0.0000 C   0  0  0  0  0  0  0  0  0  0  0  0
   -0.5007    1.5428    0.0000 O   0  0  0  0  0  0  0  0  0  0  0  0
    6.3497    0.1722    0.0000 C   0  0  0  0  0  0  0  0  0  0  0  0
    7.0987   -0.4981    0.0000 C   0  0  0  0  0  0  0  0  0  0  0  0
  1  2  1  0  0  0  0
  2  3  1  0  0  0  0
  2  4  1  0  0  0  0
  4 20  1  0  0  0  0
  4  5  2  0  0  0  0
  5  6  1  0  0  0  0
  6  7  2  0  0  0  0
  7  8  1  0  0  0  0
  8  9  2  0  0  0  0
  9 10  1  0  0  0  0
 10 11  2  0  0  0  0
 10 12  1  0  0  0  0
 12 13  1  0  0  0  0
 13 14  1  0  0  0  0
 14 18  1  0  0  0  0
 14 15  2  0  0  0  0
 15 16  1  0  0  0  0
 16 17  2  0  0  0  0
 17 18  1  0  0  0  0
  7 19  1  0  0  0  0
 19 20  2  0  0  0  0
M  END
> <JC_XSMILES>
CC(C)C1=CC=C(\C=C\C(=O)NCC2=CC=CO2)C=C1

> <GNF-Pf identifier>
GNF-Pf-1752

> <PF proliferation inhibition 3D7 EC50 uM>
0.89

> <W2 Pf proliferation inhibition EC50 uM >
0.628

> <Huh7 cytotox for Pf inhibitiors CC50 uM>
>10

> <Powder data?>
No

> <IFI value>
0

> <Salt>
No salt

> <Equiv of salt>
0

$$$$

  -OEChem-06281415292D

 30 33  0     0  0  0  0  0  0999 V2000
    8.7958    2.0830    0.0000 C   0  0  0  0  0  0  0  0  0  0  0  0
    7.7959    2.0888    0.0000 O   0  0  0  0  0  0  0  0  0  0  0  0
    7.2908    1.2257    0.0000 C   0  0  0  0  0  0  0  0  0  0  0  0
    6.2857    1.2346    0.0000 C   0  0  0  0  0  0  0  0  0  0  0  0
    5.7857    0.3626    0.0000 C   0  0  0  0  0  0  0  0  0  0  0  0
    6.2858   -0.5094    0.0000 C   0  0  0  0  0  0  0  0  0  0  0  0
    7.2859   -0.5094    0.0000 C   0  0  0  0  0  0  0  0  0  0  0  0
    7.7909    0.3537    0.0000 C   0  0  0  0  0  0  0  0  0  0  0  0
    8.7909    0.3494    0.0000 O   0  0  0  0  0  0  0  0  0  0  0  0
    9.2946    1.2132    0.0000 C   0  0  0  0  0  0  0  0  0  0  0  0
   10.2946    1.2089    0.0000 C   0  0  0  0  0  0  0  0  0  0  0  0
   10.7984    2.0787    0.0000 C   0  0  0  0  0  0  0  0  0  0  0  0
   11.7985    2.0744    0.0000 C   0  0  0  0  0  0  0  0  0  0  0  0
   12.2998    1.2091    0.0000 C   0  0  0  0  0  0  0  0  0  0  0  0
   13.2998    1.2092    0.0000 Cl  0  0  0  0  0  0  0  0  0  0  0  0
   11.7960    0.3393    0.0000 C   0  0  0  0  0  0  0  0  0  0  0  0
   10.7908    0.3348    0.0000 C   0  0  0  0  0  0  0  0  0  0  0  0
    4.7857    0.3625    0.0000 C   0  0  0  0  0  0  0  0  0  0  0  0
    4.2858   -0.5035    0.0000 C   0  0  0  0  0  0  0  0  0  0  0  0
    4.7859   -1.3695    0.0000 C   0  0  0  0  0  0  0  0  0  0  0  0
    5.2859   -2.2355    0.0000 N   0  0  0  0  0  0  0  0  0  0  0  0
    3.2858   -0.5036    0.0000 C   0  0  0  0  0  0  0  0  0  0  0  0
    2.6938    0.3110    0.0000 N   0  0  0  0  0  0  0  0  0  0  0  0
    1.7360   -0.0000    0.0000 C   0  0  0  0  0  0  0  0  0  0  0  0
    0.8680    0.5079    0.0000 C   0  0  0  0  0  0  0  0  0  0  0  0
    0.0000    0.0000    0.0000 C   0  0  0  0  0  0  0  0  0  0  0  0
   -0.0000   -1.0058    0.0000 C   0  0  0  0  0  0  0  0  0  0  0  0
    0.8680   -1.5037    0.0000 C   0  0  0  0  0  0  0  0  0  0  0  0
    1.7360   -1.0071    0.0000 C   0  0  0  0  0  0  0  0  0  0  0  0
    2.6938   -1.3184    0.0000 N   0  0  0  0  0  0  0  0  0  0  0  0
  1  2  1  0  0  0  0
  2  3  1  0  0  0  0
  3  8  1  0  0  0  0
  3  4  2  0  0  0  0
  4  5  1  0  0  0  0
  5  6  2  0  0  0  0
  6  7  1  0  0  0  0
  7  8  2  0  0  0  0
  8  9  1  0  0  0  0
  9 10  1  0  0  0  0
 10 11  1  0  0  0  0
 11 17  1  0  0  0  0
 11 12  2  0  0  0  0
 12 13  1  0  0  0  0
 13 14  2  0  0  0  0
 14 15  1  0  0  0  0
 14 16  1  0  0  0  0
 16 17  2  0  0  0  0
  5 18  1  0  0  0  0
 18 19  2  0  0  0  0
 19 20  1  0  0  0  0
 20 21  3  0  0  0  0
 19 22  1  0  0  0  0
 22 30  1  0  0  0  0
 22 23  2  0  0  0  0
 23 24  1  0  0  0  0
 24 29  1  0  0  0  0
 24 25  2  0  0  0  0
 25 26  1  0  0  0  0
 26 27  2  0  0  0  0
 27 28  1  0  0  0  0
 28 29  2  0  0  0  0
 29 30  1  0  0  0  0
M  END
> <JC_XSMILES>
COC1=CC(=CC=C1OCC2=CC=C(Cl)C=C2)\C=C(/C#N)C3=NC4=CC=CC=C4N3

> <GNF-Pf identifier>
GNF-Pf-1896

> <PF proliferation inhibition 3D7 EC50 uM>
0.321

> <W2 Pf proliferation inhibition EC50 uM >
0.558

> <Huh7 cytotox for Pf inhibitiors CC50 uM>
>10

> <Powder data?>
No

> <IFI value>
0

> <Salt>
No salt

> <Equiv of salt>
0

$$$$

  -OEChem-06281415292D

 40 44  0     1  0  0  0  0  0999 V2000
   -0.8571    2.5065    0.0000 C   0  0  0  0  0  0  0  0  0  0  0  0
    0.0088    3.0068    0.0000 C   0  0  0  0  0  0  0  0  0  0  0  0
    0.8750    2.5071    0.0000 C   0  0  0  0  0  0  0  0  0  0  0  0
    1.7408    3.0074    0.0000 C   0  0  0  0  0  0  0  0  0  0  0  0
    2.6070    2.5076    0.0000 C   0  0  0  0  0  0  0  0  0  0  0  0
    3.4729    3.0079    0.0000 C   0  0  0  0  0  0  0  0  0  0  0  0
    4.3391    2.5082    0.0000 N   0  0  0  0  0  0  0  0  0  0  0  0
    4.3394    1.5082    0.0000 C   0  0  3  0  0  0  0  0  0  0  0  0
    5.2056    1.0084    0.0000 C   0  0  0  0  0  0  0  0  0  0  0  0
    6.0714    1.5087    0.0000 C   0  0  0  0  0  0  0  0  0  0  0  0
    3.4735    1.0079    0.0000 C   0  0  0  0  0  0  0  0  0  0  0  0
    2.6012    1.5123    0.0000 N   0  0  0  0  0  0  0  0  0  0  0  0
    1.7358    1.0056    0.0000 C   0  0  0  0  0  0  0  0  0  0  0  0
    0.8679    1.5135    0.0000 C   0  0  0  0  0  0  0  0  0  0  0  0
    0.0000    1.0056    0.0000 C   0  0  0  0  0  0  0  0  0  0  0  0
    0.0000    0.0000    0.0000 C   0  0  0  0  0  0  0  0  0  0  0  0
    0.8679   -0.4977    0.0000 C   0  0  0  0  0  0  0  0  0  0  0  0
    1.7371    0.0000    0.0000 C   0  0  0  0  0  0  0  0  0  0  0  0
    2.6038   -0.4989    0.0000 C   0  0  0  0  0  0  0  0  0  0  0  0
    2.6037   -1.4989    0.0000 O   0  0  0  0  0  0  0  0  0  0  0  0
    3.4748    0.0023    0.0000 N   0  0  0  0  0  0  0  0  0  0  0  0
    4.3408   -0.4978    0.0000 C   0  0  0  0  0  0  0  0  0  0  0  0
    5.2099    0.0073    0.0000 C   0  0  0  0  0  0  0  0  0  0  0  0
    6.0759   -0.4927    0.0000 C   0  0  0  0  0  0  0  0  0  0  0  0
    6.0817   -1.4927    0.0000 C   0  0  0  0  0  0  0  0  0  0  0  0
    6.9499   -1.9890    0.0000 F   0  0  0  0  0  0  0  0  0  0  0  0
    5.2126   -1.9978    0.0000 C   0  0  0  0  0  0  0  0  0  0  0  0
    4.3377   -1.5029    0.0000 C   0  0  0  0  0  0  0  0  0  0  0  0
    5.2049    3.0084    0.0000 C   0  0  0  0  0  0  0  0  0  0  0  0
    6.0711    2.5087    0.0000 O   0  0  0  0  0  0  0  0  0  0  0  0
    5.2046    4.0084    0.0000 C   0  0  0  0  0  0  0  0  0  0  0  0
    4.3330    4.5101    0.0000 C   0  0  0  0  0  0  0  0  0  0  0  0
    4.3345    5.5150    0.0000 C   0  0  0  0  0  0  0  0  0  0  0  0
    5.1999    6.0162    0.0000 C   0  0  0  0  0  0  0  0  0  0  0  0
    5.2033    7.0178    0.0000 C   0  0  0  0  0  0  0  0  0  0  0  0
    6.0683    7.5206    0.0000 C   0  0  0  0  0  0  0  0  0  0  0  0
    6.9393    7.0178    0.0000 C   0  0  0  0  0  0  0  0  0  0  0  0
    6.9452    6.0122    0.0000 C   0  0  0  0  0  0  0  0  0  0  0  0
    6.0715    5.5145    0.0000 C   0  0  0  0  0  0  0  0  0  0  0  0
    6.0777    4.5117    0.0000 C   0  0  0  0  0  0  0  0  0  0  0  0
  1  2  1  0  0  0  0
  2  3  1  0  0  0  0
  3  4  1  0  0  0  0
  4  5  1  0  0  0  0
  5  6  1  0  0  0  0
  6  7  1  0  0  0  0
  7  8  1  0  0  0  0
  8  9  1  0  0  0  0
  9 10  1  0  0  0  0
  8 11  1  0  0  0  0
 11 21  1  0  0  0  0
 11 12  2  0  0  0  0
 12 13  1  0  0  0  0
 13 18  1  0  0  0  0
 13 14  2  0  0  0  0
 14 15  1  0  0  0  0
 15 16  2  0  0  0  0
 16 17  1  0  0  0  0
 17 18  2  0  0  0  0
 18 19  1  0  0  0  0
 19 20  2  0  0  0  0
 19 21  1  0  0  0  0
 21 22  1  0  0  0  0
 22 28  1  0  0  0  0
 22 23  2  0  0  0  0
 23 24  1  0  0  0  0
 24 25  2  0  0  0  0
 25 26  1  0  0  0  0
 25 27  1  0  0  0  0
 27 28  2  0  0  0  0
  7 29  1  0  0  0  0
 29 30  2  0  0  0  0
 29 31  1  0  0  0  0
 31 40  1  0  0  0  0
 31 32  2  0  0  0  0
 32 33  1  0  0  0  0
 33 34  2  0  0  0  0
 34 39  1  0  0  0  0
 34 35  1  0  0  0  0
 35 36  2  0  0  0  0
 36 37  1  0  0  0  0
 37 38  2  0  0  0  0
 38 39  1  0  0  0  0
 39 40  2  0  0  0  0
M  END
> <JC_XSMILES>
CCCCCCN(C(CC)C1=NC2=CC=CC=C2C(=O)N1C3=CC=C(F)C=C3)C(=O)C4=CC=C5C=CC=CC5=C4

> <GNF-Pf identifier>
GNF-Pf-1914

> <PF proliferation inhibition 3D7 EC50 uM>
0.454

> <W2 Pf proliferation inhibition EC50 uM >
0.548

> <Huh7 cytotox for Pf inhibitiors CC50 uM>
>10

> <Powder data?>
No

> <IFI value>
0.029411765

> <Salt>
No salt

> <Equiv of salt>
0

$$$$

  -OEChem-06281415292D

 28 29  0     1  0  0  0  0  0999 V2000
   -8.6632    1.9797    0.0000 C   0  0  0  0  0  0  0  0  0  0  0  0
   -7.7957    1.4823    0.0000 C   0  0  0  0  0  0  0  0  0  0  0  0
   -6.9311    1.9848    0.0000 N   0  0  0  0  0  0  0  0  0  0  0  0
   -6.9341    2.9848    0.0000 C   0  0  0  0  0  0  0  0  0  0  0  0
   -7.8016    3.4823    0.0000 C   0  0  0  0  0  0  0  0  0  0  0  0
   -6.0636    1.4874    0.0000 C   0  0  0  0  0  0  0  0  0  0  0  0
   -5.1991    1.9899    0.0000 C   0  0  0  0  0  0  0  0  0  0  0  0
   -4.3316    1.4925    0.0000 C   0  0  0  0  0  0  0  0  0  0  0  0
   -3.4670    1.9950    0.0000 C   0  0  3  0  0  0  0  0  0  0  0  0
   -3.4700    2.9950    0.0000 C   0  0  0  0  0  0  0  0  0  0  0  0
   -2.5995    1.4976    0.0000 N   0  0  0  0  0  0  0  0  0  0  0  0
   -1.7350    2.0001    0.0000 C   0  0  0  0  0  0  0  0  0  0  0  0
   -0.8675    1.5027    0.0000 C   0  0  0  0  0  0  0  0  0  0  0  0
   -0.8675    0.4975    0.0000 C   0  0  0  0  0  0  0  0  0  0  0  0
    0.0000    0.0000    0.0000 C   0  0  0  0  0  0  0  0  0  0  0  0
    0.8675    0.4975    0.0000 C   0  0  0  0  0  0  0  0  0  0  0  0
    1.7328   -0.0038    0.0000 O   0  0  0  0  0  0  0  0  0  0  0  0
    2.5995    0.4950    0.0000 C   0  0  0  0  0  0  0  0  0  0  0  0
    3.4648   -0.0063    0.0000 C   0  0  0  0  0  0  0  0  0  0  0  0
    4.3346    0.4976    0.0000 C   0  0  0  0  0  0  0  0  0  0  0  0
    5.2000   -0.0036    0.0000 C   0  0  0  0  0  0  0  0  0  0  0  0
    5.2044   -1.0036    0.0000 C   0  0  0  0  0  0  0  0  0  0  0  0
    4.3346   -1.5075    0.0000 C   0  0  0  0  0  0  0  0  0  0  0  0
    3.4604   -1.0114    0.0000 C   0  0  0  0  0  0  0  0  0  0  0  0
    0.8675    1.5027    0.0000 C   0  0  0  0  0  0  0  0  0  0  0  0
    1.7350    2.0001    0.0000 O   0  0  0  0  0  0  0  0  0  0  0  0
    1.7379    3.0001    0.0000 C   0  0  0  0  0  0  0  0  0  0  0  0
   -0.0000    2.0104    0.0000 C   0  0  0  0  0  0  0  0  0  0  0  0
  1  2  1  0  0  0  0
  2  3  1  0  0  0  0
  3  4  1  0  0  0  0
  4  5  1  0  0  0  0
  3  6  1  0  0  0  0
  6  7  1  0  0  0  0
  7  8  1  0  0  0  0
  8  9  1  0  0  0  0
  9 10  1  0  0  0  0
  9 11  1  0  0  0  0
 11 12  1  0  0  0  0
 12 13  1  0  0  0  0
 13 28  1  0  0  0  0
 13 14  2  0  0  0  0
 14 15  1  0  0  0  0
 15 16  2  0  0  0  0
 16 17  1  0  0  0  0
 17 18  1  0  0  0  0
 18 19  1  0  0  0  0
 19 24  1  0  0  0  0
 19 20  2  0  0  0  0
 20 21  1  0  0  0  0
 21 22  2  0  0  0  0
 22 23  1  0  0  0  0
 23 24  2  0  0  0  0
 16 25  1  0  0  0  0
 25 26  1  0  0  0  0
 26 27  1  0  0  0  0
 25 28  2  0  0  0  0
M  END
> <JC_XSMILES>
CCN(CC)CCCC(C)NCC1=CC=C(OCC2=CC=CC=C2)C(OC)=C1

> <GNF-Pf identifier>
GNF-Pf-2020

> <PF proliferation inhibition 3D7 EC50 uM>
0.771

> <W2 Pf proliferation inhibition EC50 uM >
0.494

> <Huh7 cytotox for Pf inhibitiors CC50 uM>
>10

> <Powder data?>
No

> <IFI value>
0.071428571

> <Salt>
No salt

> <Equiv of salt>
0

$$$$

  -OEChem-06281415292D

 21 24  0     1  0  0  0  0  0999 V2000
    6.2962    0.5025    0.0000 C   0  0  0  0  0  0  0  0  0  0  0  0
    5.7988   -0.3651    0.0000 C   0  0  0  0  0  0  0  0  0  0  0  0
    4.7936   -0.3651    0.0000 C   0  0  0  0  0  0  0  0  0  0  0  0
    4.2858    0.5024    0.0000 N   0  0  0  0  0  0  0  0  0  0  0  0
    4.7935    1.3699    0.0000 C   0  0  0  0  0  0  0  0  0  0  0  0
    5.7987    1.3699    0.0000 C   0  0  0  0  0  0  0  0  0  0  0  0
    3.2858    0.5023    0.0000 C   0  0  0  0  0  0  0  0  0  0  0  0
    2.6938   -0.3125    0.0000 N   0  0  0  0  0  0  0  0  0  0  0  0
    1.7360   -0.0012    0.0000 C   0  0  0  0  0  0  0  0  0  0  0  0
    1.7360    1.0058    0.0000 C   0  0  0  0  0  0  0  0  0  0  0  0
    0.8680    1.5138    0.0000 C   0  0  0  0  0  0  0  0  0  0  0  0
    0.0000    1.0058    0.0000 N   0  0  3  0  0  0  0  0  0  0  0  0
    0.0000    0.0000    0.0000 C   0  0  0  0  0  0  0  0  0  0  0  0
    0.8680   -0.4978    0.0000 C   0  0  0  0  0  0  0  0  0  0  0  0
   -0.8675    1.5032    0.0000 C   0  0  0  0  0  0  0  0  0  0  0  0
   -1.7320    1.0007    0.0000 C   0  0  0  0  0  0  0  0  0  0  0  0
   -1.8348    0.0043    0.0000 C   0  0  0  0  0  0  0  0  0  0  0  0
   -2.8134   -0.2082    0.0000 C   0  0  0  0  0  0  0  0  0  0  0  0
   -3.3150    0.6570    0.0000 C   0  0  0  0  0  0  0  0  0  0  0  0
   -2.6514    1.4057    0.0000 S   0  0  0  0  0  0  0  0  0  0  0  0
    2.6938    1.3169    0.0000 S   0  0  0  0  0  0  0  0  0  0  0  0
  1  6  1  0  0  0  0
  1  2  1  0  0  0  0
  2  3  1  0  0  0  0
  3  4  1  0  0  0  0
  4  5  1  0  0  0  0
  5  6  1  0  0  0  0
  4  7  1  0  0  0  0
  7 21  1  0  0  0  0
  7  8  2  0  0  0  0
  8  9  1  0  0  0  0
  9 14  1  0  0  0  0
  9 10  2  0  0  0  0
 10 11  1  0  0  0  0
 11 12  1  0  0  0  0
 12 13  1  0  0  0  0
 13 14  1  0  0  0  0
 12 15  1  0  0  0  0
 15 16  1  0  0  0  0
 16 20  1  0  0  0  0
 16 17  2  0  0  0  0
 17 18  1  0  0  0  0
 18 19  2  0  0  0  0
 19 20  1  0  0  0  0
 10 21  1  0  0  0  0
M  END
> <JC_XSMILES>
C1CCN(CC1)C2=NC3=C(CN(CC3)CC4=CC=CS4)S2

> <GNF-Pf identifier>
GNF-Pf-2142

> <PF proliferation inhibition 3D7 EC50 uM>
1.26

> <W2 Pf proliferation inhibition EC50 uM >
0.446

> <Huh7 cytotox for Pf inhibitiors CC50 uM>
>10

> <Powder data?>
No

> <IFI value>
0.069444444

> <Salt>
No salt

> <Equiv of salt>
0

$$$$

  -OEChem-06281415292D

 17 19  0     0  0  0  0  0  0999 V2000
    0.0000    4.0102    0.0000 C   0  0  0  0  0  0  0  0  0  0  0  0
    0.0000    3.0102    0.0000 N   0  0  0  0  0  0  0  0  0  0  0  0
   -0.8674    2.5027    0.0000 C   0  0  0  0  0  0  0  0  0  0  0  0
   -0.8674    1.4976    0.0000 C   0  0  0  0  0  0  0  0  0  0  0  0
    0.0000    1.0000    0.0000 N   0  0  0  0  0  0  0  0  0  0  0  0
    0.8674    1.4976    0.0000 C   0  0  0  0  0  0  0  0  0  0  0  0
    0.8674    2.5027    0.0000 C   0  0  0  0  0  0  0  0  0  0  0  0
    0.0000    0.0000    0.0000 C   0  0  0  0  0  0  0  0  0  0  0  0
   -0.8680   -0.5079    0.0000 N   0  0  0  0  0  0  0  0  0  0  0  0
   -0.8680   -1.5137    0.0000 C   0  0  0  0  0  0  0  0  0  0  0  0
   -1.7333   -2.0149    0.0000 Cl  0  0  0  0  0  0  0  0  0  0  0  0
    0.0000   -2.0116    0.0000 N   0  0  0  0  0  0  0  0  0  0  0  0
    0.8680   -1.5150    0.0000 C   0  0  0  0  0  0  0  0  0  0  0  0
    0.8680   -0.5079    0.0000 C   0  0  0  0  0  0  0  0  0  0  0  0
    1.8258   -0.1969    0.0000 N   0  0  0  0  0  0  0  0  0  0  0  0
    2.4178   -1.0115    0.0000 C   0  0  0  0  0  0  0  0  0  0  0  0
    1.8258   -1.8263    0.0000 N   0  0  0  0  0  0  0  0  0  0  0  0
  1  2  1  0  0  0  0
  2  7  1  0  0  0  0
  2  3  1  0  0  0  0
  3  4  1  0  0  0  0
  4  5  1  0  0  0  0
  5  6  1  0  0  0  0
  6  7  1  0  0  0  0
  5  8  1  0  0  0  0
  8 14  1  0  0  0  0
  8  9  2  0  0  0  0
  9 10  1  0  0  0  0
 10 11  1  0  0  0  0
 10 12  2  0  0  0  0
 12 13  1  0  0  0  0
 13 17  1  0  0  0  0
 13 14  2  0  0  0  0
 14 15  1  0  0  0  0
 15 16  2  0  0  0  0
 16 17  1  0  0  0  0
M  END
> <JC_XSMILES>
CN1CCN(CC1)C2=NC(Cl)=NC3=C2N=CN3

> <GNF-Pf identifier>
GNF-Pf-2177

> <PF proliferation inhibition 3D7 EC50 uM>
1.174

> <W2 Pf proliferation inhibition EC50 uM >
0.438

> <Huh7 cytotox for Pf inhibitiors CC50 uM>
>10

> <Powder data?>
No

> <IFI value>
0.006993007

> <Salt>
No salt

> <Equiv of salt>
0

$$$$

  -OEChem-06281415292D

 29 32  0     0  0  0  0  0  0999 V2000
    1.1805   -1.7228    0.0000 C   0  0  0  0  0  0  0  0  0  0  0  0
    1.5883   -0.8097    0.0000 C   0  0  0  0  0  0  0  0  0  0  0  0
    1.0014   -0.0000    0.0000 N   0  3  0  0  0  0  0  0  0  0  0  0
    1.3131    0.9519    0.0000 C   0  0  0  0  0  0  0  0  0  0  0  0
    0.5007    1.5426    0.0000 O   0  0  0  0  0  0  0  0  0  0  0  0
   -0.3065    0.9519    0.0000 C   0  0  0  0  0  0  0  0  0  0  0  0
   -1.2577    1.2606    0.0000 C   0  0  0  0  0  0  0  0  0  0  0  0
   -2.0024    0.5855    0.0000 C   0  0  0  0  0  0  0  0  0  0  0  0
   -2.9537    0.8941    0.0000 C   0  0  0  0  0  0  0  0  0  0  0  0
   -3.1677    1.8709    0.0000 C   0  0  0  0  0  0  0  0  0  0  0  0
   -2.4229    2.5460    0.0000 C   0  0  0  0  0  0  0  0  0  0  0  0
   -1.4641    2.2443    0.0000 C   0  0  0  0  0  0  0  0  0  0  0  0
    0.0000    0.0000    0.0000 C   0  0  0  0  0  0  0  0  0  0  0  0
   -0.5889   -0.8082    0.0000 C   0  0  0  0  0  0  0  0  0  0  0  0
   -0.1785   -1.7259    0.0000 C   0  0  0  0  0  0  0  0  0  0  0  0
   -0.7674   -2.5342    0.0000 C   0  0  0  0  0  0  0  0  0  0  0  0
   -1.7624   -2.4341    0.0000 C   0  0  0  0  0  0  0  0  0  0  0  0
   -2.1727   -1.5165    0.0000 C   0  0  0  0  0  0  0  0  0  0  0  0
   -1.5880   -0.6989    0.0000 C   0  0  0  0  0  0  0  0  0  0  0  0
    2.2646    1.2597    0.0000 C   0  0  0  0  0  0  0  0  0  0  0  0
    2.4738    2.2375    0.0000 C   0  0  0  0  0  0  0  0  0  0  0  0
    3.4252    2.5453    0.0000 N   0  0  0  0  0  0  0  0  0  0  0  0
    4.1675    1.8752    0.0000 C   0  0  0  0  0  0  0  0  0  0  0  0
    3.6345    3.5231    0.0000 C   0  0  0  0  0  0  0  0  0  0  0  0
    2.8864    4.1945    0.0000 C   0  0  0  0  0  0  0  0  0  0  0  0
    3.0955    5.1725    0.0000 C   0  0  0  0  0  0  0  0  0  0  0  0
    4.0452    5.4858    0.0000 C   0  0  0  0  0  0  0  0  0  0  0  0
    4.7933    4.8144    0.0000 C   0  0  0  0  0  0  0  0  0  0  0  0
    4.5917    3.8297    0.0000 C   0  0  0  0  0  0  0  0  0  0  0  0
  1  2  1  0  0  0  0
  2  3  1  0  0  0  0
  3 13  1  0  0  0  0
  3  4  2  0  0  0  0
  4  5  1  0  0  0  0
  5  6  1  0  0  0  0
  6  7  1  0  0  0  0
  7 12  1  0  0  0  0
  7  8  2  0  0  0  0
  8  9  1  0  0  0  0
  9 10  2  0  0  0  0
 10 11  1  0  0  0  0
 11 12  2  0  0  0  0
  6 13  2  0  0  0  0
 13 14  1  0  0  0  0
 14 19  1  0  0  0  0
 14 15  2  0  0  0  0
 15 16  1  0  0  0  0
 16 17  2  0  0  0  0
 17 18  1  0  0  0  0
 18 19  2  0  0  0  0
  4 20  1  0  0  0  0
 20 21  2  0  0  0  0
 21 22  1  0  0  0  0
 22 23  1  0  0  0  0
 22 24  1  0  0  0  0
 24 29  1  0  0  0  0
 24 25  2  0  0  0  0
 25 26  1  0  0  0  0
 26 27  2  0  0  0  0
 27 28  1  0  0  0  0
 28 29  2  0  0  0  0
M  CHG  1   3   1
M  END
> <JC_XSMILES>
CC[N+]1=C(OC(C2=CC=CC=C2)=C1C3=CC=CC=C3)\C=C\N(C)C4=CC=CC=C4

> <GNF-Pf identifier>
GNF-Pf-2241

> <PF proliferation inhibition 3D7 EC50 uM>
0.617

> <W2 Pf proliferation inhibition EC50 uM >
0.41

> <Huh7 cytotox for Pf inhibitiors CC50 uM>
>10

> <Powder data?>
No

> <IFI value>
0.227272727

> <Salt>
No salt

> <Equiv of salt>
0

$$$$

  -OEChem-06281415292D

 31 32  0     1  0  0  0  0  0999 V2000
   -5.2197    8.9899    0.0000 C   0  0  0  0  0  0  0  0  0  0  0  0
   -5.2168    7.9899    0.0000 C   0  0  0  0  0  0  0  0  0  0  0  0
   -4.3493    7.4925    0.0000 C   0  0  0  0  0  0  0  0  0  0  0  0
   -4.3463    6.4925    0.0000 C   0  0  0  0  0  0  0  0  0  0  0  0
   -3.4788    5.9950    0.0000 N   0  0  3  0  0  0  0  0  0  0  0  0
   -2.6143    6.4976    0.0000 C   0  0  0  0  0  0  0  0  0  0  0  0
   -3.4759    4.9950    0.0000 C   0  0  0  0  0  0  0  0  0  0  0  0
   -2.6084    4.4976    0.0000 C   0  0  0  0  0  0  0  0  0  0  0  0
   -2.6054    3.4976    0.0000 C   0  0  0  0  0  0  0  0  0  0  0  0
   -1.7379    3.0001    0.0000 N   0  0  0  0  0  0  0  0  0  0  0  0
   -1.7350    2.0001    0.0000 C   0  0  0  0  0  0  0  0  0  0  0  0
   -2.5995    1.4976    0.0000 O   0  0  0  0  0  0  0  0  0  0  0  0
   -0.8675    1.5027    0.0000 C   0  0  0  0  0  0  0  0  0  0  0  0
   -0.8675    0.4975    0.0000 C   0  0  0  0  0  0  0  0  0  0  0  0
    0.0000    0.0000    0.0000 C   0  0  0  0  0  0  0  0  0  0  0  0
    0.8675    0.4975    0.0000 C   0  0  0  0  0  0  0  0  0  0  0  0
    1.7328   -0.0038    0.0000 Cl  0  0  0  0  0  0  0  0  0  0  0  0
    0.8675    1.5027    0.0000 C   0  0  0  0  0  0  0  0  0  0  0  0
    1.7350    2.0001    0.0000 N   0  0  0  0  0  0  0  0  0  0  0  0
    1.7379    3.0001    0.0000 C   0  0  0  0  0  0  0  0  0  0  0  0
    0.8734    3.5027    0.0000 O   0  0  0  0  0  0  0  0  0  0  0  0
    2.6054    3.4976    0.0000 N   0  0  0  0  0  0  0  0  0  0  0  0
    2.6084    4.4976    0.0000 C   0  0  0  0  0  0  0  0  0  0  0  0
    3.4819    4.9950    0.0000 C   0  0  0  0  0  0  0  0  0  0  0  0
    3.4849    5.9951    0.0000 C   0  0  0  0  0  0  0  0  0  0  0  0
    2.6233    6.5027    0.0000 C   0  0  0  0  0  0  0  0  0  0  0  0
    2.6306    7.5027    0.0000 Cl  0  0  0  0  0  0  0  0  0  0  0  0
    1.7498    6.0052    0.0000 C   0  0  0  0  0  0  0  0  0  0  0  0
    0.8882    6.5129    0.0000 Cl  0  0  0  0  0  0  0  0  0  0  0  0
    1.7379    5.0001    0.0000 C   0  0  0  0  0  0  0  0  0  0  0  0
   -0.0000    2.0104    0.0000 C   0  0  0  0  0  0  0  0  0  0  0  0
  1  2  1  0  0  0  0
  2  3  1  0  0  0  0
  3  4  1  0  0  0  0
  4  5  1  0  0  0  0
  5  6  1  0  0  0  0
  5  7  1  0  0  0  0
  7  8  1  0  0  0  0
  8  9  1  0  0  0  0
  9 10  1  0  0  0  0
 10 11  1  0  0  0  0
 11 12  2  0  0  0  0
 11 13  1  0  0  0  0
 13 31  1  0  0  0  0
 13 14  2  0  0  0  0
 14 15  1  0  0  0  0
 15 16  2  0  0  0  0
 16 17  1  0  0  0  0
 16 18  1  0  0  0  0
 18 19  1  0  0  0  0
 19 20  1  0  0  0  0
 20 21  2  0  0  0  0
 20 22  1  0  0  0  0
 22 23  1  0  0  0  0
 23 30  1  0  0  0  0
 23 24  2  0  0  0  0
 24 25  1  0  0  0  0
 25 26  2  0  0  0  0
 26 27  1  0  0  0  0
 26 28  1  0  0  0  0
 28 29  1  0  0  0  0
 28 30  2  0  0  0  0
 18 31  2  0  0  0  0
M  END
> <JC_XSMILES>
CCCCN(C)CCCNC(=O)C1=CC=C(Cl)C(NC(=O)NC2=CC=C(Cl)C(Cl)=C2)=C1

> <GNF-Pf identifier>
GNF-Pf-2252

> <PF proliferation inhibition 3D7 EC50 uM>
0.2331

> <W2 Pf proliferation inhibition EC50 uM >
0.822

> <Huh7 cytotox for Pf inhibitiors CC50 uM>
20.28

> <Powder data?>
Yes

> <IFI value>
0.029411765

> <Salt>
No salt

> <Equiv of salt>
0

$$$$

  -OEChem-06281415292D

 32 36  0     0  0  0  0  0  0999 V2000
   13.5378    0.3478    0.0000 C   0  0  0  0  0  0  0  0  0  0  0  0
   12.5378    0.3481    0.0000 C   0  0  0  0  0  0  0  0  0  0  0  0
   12.0368    1.2136    0.0000 C   0  0  0  0  0  0  0  0  0  0  0  0
   11.0368    1.2183    0.0000 C   0  0  0  0  0  0  0  0  0  0  0  0
   10.5326    0.3486    0.0000 C   0  0  0  0  0  0  0  0  0  0  0  0
   11.0285   -0.5257    0.0000 C   0  0  0  0  0  0  0  0  0  0  0  0
   12.0336   -0.5215    0.0000 C   0  0  0  0  0  0  0  0  0  0  0  0
   12.5346   -1.3870    0.0000 N   0  3  0  0  0  0  0  0  0  0  0  0
   13.5346   -1.3858    0.0000 O   0  5  0  0  0  0  0  0  0  0  0  0
   12.0357   -2.2536    0.0000 O   0  0  0  0  0  0  0  0  0  0  0  0
    9.5326    0.3534    0.0000 C   0  0  0  0  0  0  0  0  0  0  0  0
    9.0367    1.2217    0.0000 O   0  0  0  0  0  0  0  0  0  0  0  0
    9.0285   -0.5103    0.0000 N   0  0  0  0  0  0  0  0  0  0  0  0
    8.0286   -0.5056    0.0000 C   0  0  0  0  0  0  0  0  0  0  0  0
    7.5244   -1.3752    0.0000 C   0  0  0  0  0  0  0  0  0  0  0  0
    6.5244   -1.3705    0.0000 C   0  0  0  0  0  0  0  0  0  0  0  0
    6.0234   -0.5050    0.0000 C   0  0  0  0  0  0  0  0  0  0  0  0
    6.5275    0.3646    0.0000 C   0  0  0  0  0  0  0  0  0  0  0  0
    7.5327    0.3687    0.0000 C   0  0  0  0  0  0  0  0  0  0  0  0
    5.0234   -0.5047    0.0000 C   0  0  0  0  0  0  0  0  0  0  0  0
    4.4313    0.3108    0.0000 N   0  0  0  0  0  0  0  0  0  0  0  0
    3.4726   -0.0003    0.0000 C   0  0  0  0  0  0  0  0  0  0  0  0
    2.6012    0.5067    0.0000 C   0  0  0  0  0  0  0  0  0  0  0  0
    1.7357   -0.0000    0.0000 C   0  0  0  0  0  0  0  0  0  0  0  0
    0.8679    0.5078    0.0000 C   0  0  0  0  0  0  0  0  0  0  0  0
    0.0000    0.0000    0.0000 C   0  0  0  0  0  0  0  0  0  0  0  0
    0.0000   -1.0057    0.0000 C   0  0  0  0  0  0  0  0  0  0  0  0
    0.8679   -1.5035    0.0000 C   0  0  0  0  0  0  0  0  0  0  0  0
    1.7371   -1.0057    0.0000 C   0  0  0  0  0  0  0  0  0  0  0  0
    2.6037   -1.5046    0.0000 C   0  0  0  0  0  0  0  0  0  0  0  0
    3.4722   -1.0081    0.0000 C   0  0  0  0  0  0  0  0  0  0  0  0
    4.4307   -1.3199    0.0000 N   0  0  0  0  0  0  0  0  0  0  0  0
  1  2  1  0  0  0  0
  2  7  1  0  0  0  0
  2  3  2  0  0  0  0
  3  4  1  0  0  0  0
  4  5  2  0  0  0  0
  5  6  1  0  0  0  0
  6  7  2  0  0  0  0
  7  8  1  0  0  0  0
  8  9  1  0  0  0  0
  8 10  2  0  0  0  0
  5 11  1  0  0  0  0
 11 12  2  0  0  0  0
 11 13  1  0  0  0  0
 13 14  1  0  0  0  0
 14 19  1  0  0  0  0
 14 15  2  0  0  0  0
 15 16  1  0  0  0  0
 16 17  2  0  0  0  0
 17 18  1  0  0  0  0
 18 19  2  0  0  0  0
 17 20  1  0  0  0  0
 20 32  1  0  0  0  0
 20 21  2  0  0  0  0
 21 22  1  0  0  0  0
 22 31  1  0  0  0  0
 22 23  2  0  0  0  0
 23 24  1  0  0  0  0
 24 29  1  0  0  0  0
 24 25  2  0  0  0  0
 25 26  1  0  0  0  0
 26 27  2  0  0  0  0
 27 28  1  0  0  0  0
 28 29  2  0  0  0  0
 29 30  1  0  0  0  0
 30 31  2  0  0  0  0
 31 32  1  0  0  0  0
M  CHG  2   8   1   9  -1
M  END
> <JC_XSMILES>
CC1=CC=C(C=C1[N+]([O-])=O)C(=O)NC2=CC=C(C=C2)C3=NC4=CC5=CC=CC=C5C=C4N3

> <GNF-Pf identifier>
GNF-Pf-2275

> <PF proliferation inhibition 3D7 EC50 uM>
4.3

> <W2 Pf proliferation inhibition EC50 uM >
3.98

> <Huh7 cytotox for Pf inhibitiors CC50 uM>
>100

> <Powder data?>
Yes

> <IFI value>
0.090909091

> <Salt>
No salt

> <Equiv of salt>
0

$$$$

  -OEChem-06281415292D

 27 31  0     1  0  0  0  0  0999 V2000
    3.0028   -2.2695    0.0000 O   0  0  0  0  0  0  0  0  0  0  0  0
    2.6938   -1.3184    0.0000 C   0  0  0  0  0  0  0  0  0  0  0  0
    3.2858   -0.5036    0.0000 N   0  0  0  0  0  0  0  0  0  0  0  0
    2.6938    0.3110    0.0000 C   0  0  0  0  0  0  0  0  0  0  0  0
    1.7360   -0.0000    0.0000 C   0  0  3  0  0  0  0  0  0  0  0  0
    0.8680    0.5079    0.0000 C   0  0  0  0  0  0  0  0  0  0  0  0
    0.0000    0.0000    0.0000 N   0  0  3  0  0  0  0  0  0  0  0  0
   -0.0000   -1.0058    0.0000 C   0  0  0  0  0  0  0  0  0  0  0  0
    0.8680   -1.5037    0.0000 C   0  0  0  0  0  0  0  0  0  0  0  0
    1.7360   -1.0071    0.0000 N   0  0  0  0  0  0  0  0  0  0  0  0
   -0.8675    0.4975    0.0000 C   0  0  0  0  0  0  0  0  0  0  0  0
   -1.7320   -0.0050    0.0000 C   0  0  0  0  0  0  0  0  0  0  0  0
   -1.7262   -1.0102    0.0000 C   0  0  0  0  0  0  0  0  0  0  0  0
   -2.5907   -1.5128    0.0000 C   0  0  0  0  0  0  0  0  0  0  0  0
   -3.4611   -1.0204    0.0000 C   0  0  0  0  0  0  0  0  0  0  0  0
   -3.4670   -0.0152    0.0000 C   0  0  0  0  0  0  0  0  0  0  0  0
   -2.6025    0.4976    0.0000 C   0  0  0  0  0  0  0  0  0  0  0  0
    4.2858   -0.5035    0.0000 C   0  0  0  0  0  0  0  0  0  0  0  0
    4.7857    0.3625    0.0000 C   0  0  0  0  0  0  0  0  0  0  0  0
    4.3761    1.2826    0.0000 C   0  0  0  0  0  0  0  0  0  0  0  0
    5.1246    1.9564    0.0000 C   0  0  0  0  0  0  0  0  0  0  0  0
    5.1285    2.9564    0.0000 C   0  0  0  0  0  0  0  0  0  0  0  0
    5.9936    3.4592    0.0000 C   0  0  0  0  0  0  0  0  0  0  0  0
    6.8647    2.9563    0.0000 C   0  0  0  0  0  0  0  0  0  0  0  0
    6.8706    1.9506    0.0000 C   0  0  0  0  0  0  0  0  0  0  0  0
    5.9967    1.4529    0.0000 C   0  0  0  0  0  0  0  0  0  0  0  0
    5.7872    0.4679    0.0000 S   0  0  0  0  0  0  0  0  0  0  0  0
  1  2  2  0  0  0  0
  2 10  1  0  0  0  0
  2  3  1  0  0  0  0
  3  4  1  0  0  0  0
  4  5  1  0  0  0  0
  5 10  1  0  0  0  0
  5  6  1  0  0  0  0
  6  7  1  0  0  0  0
  7  8  1  0  0  0  0
  8  9  1  0  0  0  0
  9 10  1  0  0  0  0
  7 11  1  0  0  0  0
 11 12  1  0  0  0  0
 12 17  1  0  0  0  0
 12 13  2  0  0  0  0
 13 14  1  0  0  0  0
 14 15  2  0  0  0  0
 15 16  1  0  0  0  0
 16 17  2  0  0  0  0
  3 18  1  0  0  0  0
 18 19  1  0  0  0  0
 19 27  1  0  0  0  0
 19 20  2  0  0  0  0
 20 21  1  0  0  0  0
 21 26  1  0  0  0  0
 21 22  2  0  0  0  0
 22 23  1  0  0  0  0
 23 24  2  0  0  0  0
 24 25  1  0  0  0  0
 25 26  2  0  0  0  0
 26 27  1  0  0  0  0
M  END
> <JC_XSMILES>
O=C1N(CC2CN(CCN12)CC3=CC=CC=C3)CC4=CC5=CC=CC=C5S4

> <GNF-Pf identifier>
GNF-Pf-2361

> <PF proliferation inhibition 3D7 EC50 uM>
0.436

> <W2 Pf proliferation inhibition EC50 uM >
0.372

> <Huh7 cytotox for Pf inhibitiors CC50 uM>
>10

> <Powder data?>
No

> <IFI value>
0.042857143

> <Salt>
No salt

> <Equiv of salt>
0

$$$$

  -OEChem-06281415292D

 31 34  0     1  0  0  0  0  0999 V2000
    5.1947   -3.0091    0.0000 C   0  0  0  0  0  0  0  0  0  0  0  0
    5.2016   -2.0091    0.0000 C   0  0  0  0  0  0  0  0  0  0  0  0
    6.0710   -1.5151    0.0000 C   0  0  0  0  0  0  0  0  0  0  0  0
    4.3390   -1.5032    0.0000 C   0  0  0  0  0  0  0  0  0  0  0  0
    4.3458   -0.5032    0.0000 N   0  0  0  0  0  0  0  0  0  0  0  0
    5.2152   -0.0092    0.0000 C   0  0  0  0  0  0  0  0  0  0  0  0
    6.0778   -0.5151    0.0000 O   0  0  0  0  0  0  0  0  0  0  0  0
    5.2221    0.9908    0.0000 C   0  0  0  0  0  0  0  0  0  0  0  0
    6.0974    1.4848    0.0000 C   0  0  0  0  0  0  0  0  0  0  0  0
    6.0954    2.4900    0.0000 C   0  0  0  0  0  0  0  0  0  0  0  0
    6.9619    2.9892    0.0000 N   0  0  0  0  0  0  0  0  0  0  0  0
    6.9628    3.9892    0.0000 C   0  0  0  0  0  0  0  0  0  0  0  0
    6.0972    4.4900    0.0000 O   0  0  0  0  0  0  0  0  0  0  0  0
    7.8293    4.4884    0.0000 C   0  0  0  0  0  0  0  0  0  0  0  0
    7.9359    5.4843    0.0000 C   0  0  0  0  0  0  0  0  0  0  0  0
    8.9154    5.6930    0.0000 C   0  0  0  0  0  0  0  0  0  0  0  0
    9.4135    4.8259    0.0000 C   0  0  0  0  0  0  0  0  0  0  0  0
    8.7471    4.0797    0.0000 S   0  0  0  0  0  0  0  0  0  0  0  0
    5.2268    2.9959    0.0000 C   0  0  0  0  0  0  0  0  0  0  0  0
    4.3603    2.4968    0.0000 C   0  0  0  0  0  0  0  0  0  0  0  0
    4.3535    1.4968    0.0000 C   0  0  0  0  0  0  0  0  0  0  0  0
    3.4848    1.0014    0.0000 N   0  0  3  0  0  0  0  0  0  0  0  0
    3.4805   -0.0073    0.0000 C   0  0  0  0  0  0  0  0  0  0  0  0
    2.6039   -0.5053    0.0000 C   0  0  0  0  0  0  0  0  0  0  0  0
    1.7371   -0.0000    0.0000 C   0  0  0  0  0  0  0  0  0  0  0  0
    0.8707   -0.4993    0.0000 C   0  0  0  0  0  0  0  0  0  0  0  0
    0.0000    0.0000    0.0000 C   0  0  0  0  0  0  0  0  0  0  0  0
   -0.0000    1.0089    0.0000 C   0  0  0  0  0  0  0  0  0  0  0  0
    0.8707    1.5185    0.0000 C   0  0  0  0  0  0  0  0  0  0  0  0
    1.7414    1.0089    0.0000 C   0  0  0  0  0  0  0  0  0  0  0  0
    2.6125    1.5125    0.0000 C   0  0  0  0  0  0  0  0  0  0  0  0
  1  2  1  0  0  0  0
  2  3  1  0  0  0  0
  2  4  1  0  0  0  0
  4  5  1  0  0  0  0
  5  6  1  0  0  0  0
  6  7  2  0  0  0  0
  6  8  1  0  0  0  0
  8 21  1  0  0  0  0
  8  9  2  0  0  0  0
  9 10  1  0  0  0  0
 10 11  1  0  0  0  0
 11 12  1  0  0  0  0
 12 13  2  0  0  0  0
 12 14  1  0  0  0  0
 14 18  1  0  0  0  0
 14 15  2  0  0  0  0
 15 16  1  0  0  0  0
 16 17  2  0  0  0  0
 17 18  1  0  0  0  0
 10 19  2  0  0  0  0
 19 20  1  0  0  0  0
 20 21  2  0  0  0  0
 21 22  1  0  0  0  0
 22 31  1  0  0  0  0
 22 23  1  0  0  0  0
 23 24  1  0  0  0  0
 24 25  1  0  0  0  0
 25 30  1  0  0  0  0
 25 26  2  0  0  0  0
 26 27  1  0  0  0  0
 27 28  2  0  0  0  0
 28 29  1  0  0  0  0
 29 30  2  0  0  0  0
 30 31  1  0  0  0  0
M  END
> <JC_XSMILES>
CC(C)CNC(=O)C1=CC(NC(=O)C2=CC=CS2)=CC=C1N3CCC4=CC=CC=C4C3

> <GNF-Pf identifier>
GNF-Pf-2375

> <PF proliferation inhibition 3D7 EC50 uM>
0.349

> <W2 Pf proliferation inhibition EC50 uM >
0.0327

> <Huh7 cytotox for Pf inhibitiors CC50 uM>
0.893

> <Powder data?>
No

> <IFI value>
0.010869565

> <Salt>
No salt

> <Equiv of salt>
0

$$$$

  -OEChem-06281415292D

 21 23  0     0  0  0  0  0  0999 V2000
    3.4829    3.0100    0.0000 C   0  0  0  0  0  0  0  0  0  0  0  0
    2.6154    2.5125    0.0000 C   0  0  0  0  0  0  0  0  0  0  0  0
    2.6125    1.5125    0.0000 N   0  0  0  0  0  0  0  0  0  0  0  0
    3.4848    1.0014    0.0000 C   0  0  0  0  0  0  0  0  0  0  0  0
    3.4805   -0.0073    0.0000 C   0  0  0  0  0  0  0  0  0  0  0  0
    2.6039   -0.5053    0.0000 C   0  0  0  0  0  0  0  0  0  0  0  0
    1.7371   -0.0000    0.0000 C   0  0  0  0  0  0  0  0  0  0  0  0
    0.8707   -0.4993    0.0000 C   0  0  0  0  0  0  0  0  0  0  0  0
    0.0000    0.0000    0.0000 C   0  0  0  0  0  0  0  0  0  0  0  0
   -0.0000    1.0089    0.0000 C   0  0  0  0  0  0  0  0  0  0  0  0
   -0.8675    1.5063    0.0000 C   0  0  0  0  0  0  0  0  0  0  0  0
    0.8707    1.5185    0.0000 C   0  0  0  0  0  0  0  0  0  0  0  0
    1.7414    1.0089    0.0000 C   0  0  0  0  0  0  0  0  0  0  0  0
    4.3535    1.4968    0.0000 C   0  0  0  0  0  0  0  0  0  0  0  0
    5.2168    0.9922    0.0000 C   0  0  0  0  0  0  0  0  0  0  0  0
    5.2085   -0.0130    0.0000 C   0  0  0  0  0  0  0  0  0  0  0  0
    6.0718   -0.5177    0.0000 C   0  0  0  0  0  0  0  0  0  0  0  0
    6.9434   -0.0274    0.0000 C   0  0  0  0  0  0  0  0  0  0  0  0
    6.9518    0.9778    0.0000 C   0  0  0  0  0  0  0  0  0  0  0  0
    6.0885    1.4927    0.0000 N   0  3  0  0  0  0  0  0  0  0  0  0
    6.0968    2.4926    0.0000 C   0  0  0  0  0  0  0  0  0  0  0  0
  1  2  1  0  0  0  0
  2  3  1  0  0  0  0
  3 13  1  0  0  0  0
  3  4  1  0  0  0  0
  4  5  1  0  0  0  0
  5  6  2  0  0  0  0
  6  7  1  0  0  0  0
  7 13  1  0  0  0  0
  7  8  2  0  0  0  0
  8  9  1  0  0  0  0
  9 10  2  0  0  0  0
 10 11  1  0  0  0  0
 10 12  1  0  0  0  0
 12 13  2  0  0  0  0
  4 14  2  0  0  0  0
 14 15  1  0  0  0  0
 15 20  1  0  0  0  0
 15 16  2  0  0  0  0
 16 17  1  0  0  0  0
 17 18  2  0  0  0  0
 18 19  1  0  0  0  0
 19 20  2  0  0  0  0
 20 21  1  0  0  0  0
M  CHG  1  20   1
M  END
> <JC_XSMILES>
CCN1C(\C=CC2=CC=C(C)C=C12)=C\C3=CC=CC=[N+]3C

> <GNF-Pf identifier>
GNF-Pf-2508

> <PF proliferation inhibition 3D7 EC50 uM>
0.2251

> <W2 Pf proliferation inhibition EC50 uM >
0.328

> <Huh7 cytotox for Pf inhibitiors CC50 uM>
>10

> <Powder data?>
No

> <IFI value>
0.077922078

> <Salt>
No salt

> <Equiv of salt>
0

$$$$

  -OEChem-06281415292D

 35 39  0     1  0  0  0  0  0999 V2000
    2.6167   -5.5097    0.0000 C   0  0  0  0  0  0  0  0  0  0  0  0
    2.6124   -4.5097    0.0000 C   0  0  0  0  0  0  0  0  0  0  0  0
    3.4756   -4.0048    0.0000 C   0  0  0  0  0  0  0  0  0  0  0  0
    3.4756   -3.0047    0.0000 C   0  0  0  0  0  0  0  0  0  0  0  0
    2.6037   -2.5046    0.0000 C   0  0  0  0  0  0  0  0  0  0  0  0
    1.7317   -3.0045    0.0000 C   0  0  0  0  0  0  0  0  0  0  0  0
    1.7404   -4.0096    0.0000 C   0  0  0  0  0  0  0  0  0  0  0  0
    0.8773   -4.5146    0.0000 S   0  0  0  0  0  0  0  0  0  0  0  0
    1.3823   -5.3777    0.0000 O   0  0  0  0  0  0  0  0  0  0  0  0
    0.3723   -3.6515    0.0000 O   0  0  0  0  0  0  0  0  0  0  0  0
    0.0142   -5.0196    0.0000 N   0  0  0  0  0  0  0  0  0  0  0  0
    0.0200   -6.0196    0.0000 C   0  0  0  0  0  0  0  0  0  0  0  0
   -0.8431   -6.5246    0.0000 C   0  0  3  0  0  0  0  0  0  0  0  0
   -0.9430   -7.5213    0.0000 C   0  0  0  0  0  0  0  0  0  0  0  0
   -1.9211   -7.7365    0.0000 C   0  0  0  0  0  0  0  0  0  0  0  0
   -2.4251   -6.8728    0.0000 C   0  0  0  0  0  0  0  0  0  0  0  0
   -1.7637   -6.1222    0.0000 O   0  0  0  0  0  0  0  0  0  0  0  0
    2.6038   -1.5046    0.0000 C   0  0  0  0  0  0  0  0  0  0  0  0
    3.4748   -1.0035    0.0000 N   0  0  0  0  0  0  0  0  0  0  0  0
    3.4735    0.0022    0.0000 N   0  0  0  0  0  0  0  0  0  0  0  0
    2.6012    0.5067    0.0000 C   0  0  0  0  0  0  0  0  0  0  0  0
    2.5985    1.5067    0.0000 N   0  0  0  0  0  0  0  0  0  0  0  0
    3.4632    2.0090    0.0000 C   0  0  0  0  0  0  0  0  0  0  0  0
    4.3336    1.5062    0.0000 C   0  0  0  0  0  0  0  0  0  0  0  0
    5.1983    2.0085    0.0000 C   0  0  0  0  0  0  0  0  0  0  0  0
    5.2015    3.0085    0.0000 C   0  0  0  0  0  0  0  0  0  0  0  0
    6.0684    3.5070    0.0000 F   0  0  0  0  0  0  0  0  0  0  0  0
    4.3311    3.5113    0.0000 C   0  0  0  0  0  0  0  0  0  0  0  0
    3.4576    3.0141    0.0000 C   0  0  0  0  0  0  0  0  0  0  0  0
    1.7358    0.0000    0.0000 C   0  0  0  0  0  0  0  0  0  0  0  0
    0.8679    0.5078    0.0000 C   0  0  0  0  0  0  0  0  0  0  0  0
    0.0000    0.0000    0.0000 C   0  0  0  0  0  0  0  0  0  0  0  0
    0.0000   -1.0057    0.0000 C   0  0  0  0  0  0  0  0  0  0  0  0
    0.8679   -1.5035    0.0000 C   0  0  0  0  0  0  0  0  0  0  0  0
    1.7371   -1.0057    0.0000 C   0  0  0  0  0  0  0  0  0  0  0  0
  1  2  1  0  0  0  0
  2  7  1  0  0  0  0
  2  3  2  0  0  0  0
  3  4  1  0  0  0  0
  4  5  2  0  0  0  0
  5  6  1  0  0  0  0
  6  7  2  0  0  0  0
  7  8  1  0  0  0  0
  8  9  2  0  0  0  0
  8 10  2  0  0  0  0
  8 11  1  0  0  0  0
 11 12  1  0  0  0  0
 12 13  1  0  0  0  0
 13 17  1  0  0  0  0
 13 14  1  0  0  0  0
 14 15  1  0  0  0  0
 15 16  1  0  0  0  0
 16 17  1  0  0  0  0
  5 18  1  0  0  0  0
 18 35  1  0  0  0  0
 18 19  2  0  0  0  0
 19 20  1  0  0  0  0
 20 21  2  0  0  0  0
 21 22  1  0  0  0  0
 22 23  1  0  0  0  0
 23 29  1  0  0  0  0
 23 24  2  0  0  0  0
 24 25  1  0  0  0  0
 25 26  2  0  0  0  0
 26 27  1  0  0  0  0
 26 28  1  0  0  0  0
 28 29  2  0  0  0  0
 21 30  1  0  0  0  0
 30 35  1  0  0  0  0
 30 31  2  0  0  0  0
 31 32  1  0  0  0  0
 32 33  2  0  0  0  0
 33 34  1  0  0  0  0
 34 35  2  0  0  0  0
M  END
> <JC_XSMILES>
CC1=CC=C(C=C1S(=O)(=O)NCC2CCCO2)C3=NN=C(NC4=CC=C(F)C=C4)C5=CC=CC=C35

> <GNF-Pf identifier>
GNF-Pf-2563

> <PF proliferation inhibition 3D7 EC50 uM>
1.705

> <W2 Pf proliferation inhibition EC50 uM >
3.108

> <Huh7 cytotox for Pf inhibitiors CC50 uM>
>100

> <Powder data?>
Yes

> <IFI value>
0.060606061

> <Salt>
No salt

> <Equiv of salt>
0

$$$$

  -OEChem-06281415292D

 41 44  0     0  0  0  0  0  0999 V2000
    4.3165   -6.5134    0.0000 C   0  0  0  0  0  0  0  0  0  0  0  0
    3.4511   -6.0124    0.0000 O   0  0  0  0  0  0  0  0  0  0  0  0
    3.4523   -5.0124    0.0000 C   0  0  0  0  0  0  0  0  0  0  0  0
    4.3249   -4.5134    0.0000 C   0  0  0  0  0  0  0  0  0  0  0  0
    4.3262   -3.5134    0.0000 C   0  0  0  0  0  0  0  0  0  0  0  0
    3.4637   -3.0073    0.0000 C   0  0  0  0  0  0  0  0  0  0  0  0
    3.4693   -2.0073    0.0000 C   0  0  0  0  0  0  0  0  0  0  0  0
    4.3381   -1.5121    0.0000 N   0  0  0  0  0  0  0  0  0  0  0  0
    4.3437   -0.5122    0.0000 C   0  0  0  0  0  0  0  0  0  0  0  0
    3.4805   -0.0073    0.0000 C   0  0  0  0  0  0  0  0  0  0  0  0
    2.6039   -0.5053    0.0000 C   0  0  0  0  0  0  0  0  0  0  0  0
    1.7371   -0.0000    0.0000 C   0  0  0  0  0  0  0  0  0  0  0  0
    0.8707   -0.4993    0.0000 C   0  0  0  0  0  0  0  0  0  0  0  0
    0.0000    0.0000    0.0000 C   0  0  0  0  0  0  0  0  0  0  0  0
   -0.8653   -0.5013    0.0000 O   0  0  0  0  0  0  0  0  0  0  0  0
   -0.8638   -1.5013    0.0000 C   0  0  0  0  0  0  0  0  0  0  0  0
   -0.0000    1.0089    0.0000 C   0  0  0  0  0  0  0  0  0  0  0  0
   -0.8675    1.5063    0.0000 O   0  0  0  0  0  0  0  0  0  0  0  0
   -1.7320    1.0038    0.0000 C   0  0  0  0  0  0  0  0  0  0  0  0
    0.8707    1.5185    0.0000 C   0  0  0  0  0  0  0  0  0  0  0  0
    1.7414    1.0089    0.0000 C   0  0  0  0  0  0  0  0  0  0  0  0
    2.6125    1.5125    0.0000 N   0  0  0  0  0  0  0  0  0  0  0  0
    3.4848    1.0014    0.0000 C   0  0  0  0  0  0  0  0  0  0  0  0
    4.3535    1.4968    0.0000 O   0  0  0  0  0  0  0  0  0  0  0  0
    5.2013   -2.0170    0.0000 C   0  0  0  0  0  0  0  0  0  0  0  0
    5.1957   -3.0170    0.0000 S   0  0  0  0  0  0  0  0  0  0  0  0
    6.0701   -1.5219    0.0000 N   0  0  0  0  0  0  0  0  0  0  0  0
    6.9333   -2.0267    0.0000 C   0  0  0  0  0  0  0  0  0  0  0  0
    7.8021   -1.5316    0.0000 C   0  0  0  0  0  0  0  0  0  0  0  0
    8.6653   -2.0364    0.0000 C   0  0  0  0  0  0  0  0  0  0  0  0
    8.6567   -3.0416    0.0000 C   0  0  0  0  0  0  0  0  0  0  0  0
    9.5199   -3.5465    0.0000 C   0  0  0  0  0  0  0  0  0  0  0  0
   10.3917   -3.0565    0.0000 C   0  0  0  0  0  0  0  0  0  0  0  0
   11.2527   -3.5651    0.0000 O   0  0  0  0  0  0  0  0  0  0  0  0
   12.1236   -3.0738    0.0000 C   0  0  0  0  0  0  0  0  0  0  0  0
   10.4003   -2.0513    0.0000 C   0  0  0  0  0  0  0  0  0  0  0  0
   11.2720   -1.5613    0.0000 O   0  0  0  0  0  0  0  0  0  0  0  0
   11.2835   -0.5614    0.0000 C   0  0  0  0  0  0  0  0  0  0  0  0
    9.5372   -1.5362    0.0000 C   0  0  0  0  0  0  0  0  0  0  0  0
    2.5911   -3.5062    0.0000 C   0  0  0  0  0  0  0  0  0  0  0  0
    2.5809   -4.5113    0.0000 C   0  0  0  0  0  0  0  0  0  0  0  0
  1  2  1  0  0  0  0
  2  3  1  0  0  0  0
  3 41  1  0  0  0  0
  3  4  2  0  0  0  0
  4  5  1  0  0  0  0
  5  6  2  0  0  0  0
  6  7  1  0  0  0  0
  7  8  1  0  0  0  0
  8  9  1  0  0  0  0
  9 10  1  0  0  0  0
 10 23  1  0  0  0  0
 10 11  2  0  0  0  0
 11 12  1  0  0  0  0
 12 21  1  0  0  0  0
 12 13  2  0  0  0  0
 13 14  1  0  0  0  0
 14 15  1  0  0  0  0
 15 16  1  0  0  0  0
 14 17  2  0  0  0  0
 17 18  1  0  0  0  0
 18 19  1  0  0  0  0
 17 20  1  0  0  0  0
 20 21  2  0  0  0  0
 21 22  1  0  0  0  0
 22 23  1  0  0  0  0
 23 24  2  0  0  0  0
  8 25  1  0  0  0  0
 25 26  2  0  0  0  0
 25 27  1  0  0  0  0
 27 28  1  0  0  0  0
 28 29  1  0  0  0  0
 29 30  1  0  0  0  0
 30 39  1  0  0  0  0
 30 31  2  0  0  0  0
 31 32  1  0  0  0  0
 32 33  2  0  0  0  0
 33 34  1  0  0  0  0
 34 35  1  0  0  0  0
 33 36  1  0  0  0  0
 36 37  1  0  0  0  0
 37 38  1  0  0  0  0
 36 39  2  0  0  0  0
  6 40  1  0  0  0  0
 40 41  2  0  0  0  0
M  END
> <JC_XSMILES>
COC1=CC=C(CN(CC2=CC3=CC(OC)=C(OC)C=C3NC2=O)C(=S)NCCC4=CC=C(OC)C(OC)=C4)C=C1

> <GNF-Pf identifier>
GNF-Pf-2628

> <PF proliferation inhibition 3D7 EC50 uM>
5.58

> <W2 Pf proliferation inhibition EC50 uM >
1.038

> <Huh7 cytotox for Pf inhibitiors CC50 uM>
35.68

> <Powder data?>
Yes

> <IFI value>
0.054054054

> <Salt>
No salt

> <Equiv of salt>
0

$$$$

  -OEChem-06281415292D

 21 23  0     0  0  0  0  0  0999 V2000
    4.3408   -0.4979    0.0000 O   0  0  0  0  0  0  0  0  0  0  0  0
    3.4748    0.0022    0.0000 C   0  0  0  0  0  0  0  0  0  0  0  0
    2.6038   -0.4989    0.0000 C   0  0  0  0  0  0  0  0  0  0  0  0
    1.7371   -0.0000    0.0000 C   0  0  0  0  0  0  0  0  0  0  0  0
    0.8679   -0.4978    0.0000 C   0  0  0  0  0  0  0  0  0  0  0  0
    0.0000    0.0000    0.0000 C   0  0  0  0  0  0  0  0  0  0  0  0
   -0.0000    1.0057    0.0000 C   0  0  0  0  0  0  0  0  0  0  0  0
    0.8679    1.5135    0.0000 C   0  0  0  0  0  0  0  0  0  0  0  0
    1.7358    1.0057    0.0000 C   0  0  0  0  0  0  0  0  0  0  0  0
    2.6012    1.5124    0.0000 C   0  0  0  0  0  0  0  0  0  0  0  0
    3.4735    1.0079    0.0000 C   0  0  0  0  0  0  0  0  0  0  0  0
    4.3394    1.5081    0.0000 C   0  0  0  0  0  0  0  0  0  0  0  0
    5.2056    1.0084    0.0000 O   0  0  0  0  0  0  0  0  0  0  0  0
    4.3391    2.5081    0.0000 N   0  0  0  0  0  0  0  0  0  0  0  0
    5.2050    3.0084    0.0000 C   0  0  0  0  0  0  0  0  0  0  0  0
    6.0742    2.5034    0.0000 C   0  0  0  0  0  0  0  0  0  0  0  0
    6.9401    3.0036    0.0000 C   0  0  0  0  0  0  0  0  0  0  0  0
    6.9457    4.0037    0.0000 C   0  0  0  0  0  0  0  0  0  0  0  0
    6.0765    4.5086    0.0000 C   0  0  0  0  0  0  0  0  0  0  0  0
    6.0822    5.5086    0.0000 Cl  0  0  0  0  0  0  0  0  0  0  0  0
    5.2018    4.0135    0.0000 C   0  0  0  0  0  0  0  0  0  0  0  0
  1  2  1  0  0  0  0
  2 11  1  0  0  0  0
  2  3  2  0  0  0  0
  3  4  1  0  0  0  0
  4  9  1  0  0  0  0
  4  5  2  0  0  0  0
  5  6  1  0  0  0  0
  6  7  2  0  0  0  0
  7  8  1  0  0  0  0
  8  9  2  0  0  0  0
  9 10  1  0  0  0  0
 10 11  2  0  0  0  0
 11 12  1  0  0  0  0
 12 13  2  0  0  0  0
 12 14  1  0  0  0  0
 14 15  1  0  0  0  0
 15 21  1  0  0  0  0
 15 16  2  0  0  0  0
 16 17  1  0  0  0  0
 17 18  2  0  0  0  0
 18 19  1  0  0  0  0
 19 20  1  0  0  0  0
 19 21  2  0  0  0  0
M  END
> <JC_XSMILES>
OC1=CC2=CC=CC=C2C=C1C(=O)NC3=CC=CC(Cl)=C3

> <GNF-Pf identifier>
GNF-Pf-2634

> <PF proliferation inhibition 3D7 EC50 uM>
0.545

> <W2 Pf proliferation inhibition EC50 uM >
0.2287

> <Huh7 cytotox for Pf inhibitiors CC50 uM>
7.89

> <Powder data?>
Yes

> <IFI value>
0.096153846

> <Salt>
No salt

> <Equiv of salt>
0

$$$$

  -OEChem-06281415292D

 30 32  0     0  0  0  0  0  0999 V2000
    4.3386   -0.4281    0.0000 C   0  0  0  0  0  0  0  0  0  0  0  0
    3.3868   -0.7346    0.0000 C   0  0  0  0  0  0  0  0  0  0  0  0
    3.1763   -1.7123    0.0000 C   0  0  0  0  0  0  0  0  0  0  0  0
    2.2245   -2.0188    0.0000 C   0  0  0  0  0  0  0  0  0  0  0  0
    2.0141   -2.9964    0.0000 C   0  0  0  0  0  0  0  0  0  0  0  0
    2.7555   -3.6675    0.0000 C   0  0  0  0  0  0  0  0  0  0  0  0
    2.5450   -4.6451    0.0000 C   0  0  0  0  0  0  0  0  0  0  0  0
    1.4831   -1.3478    0.0000 C   0  0  0  0  0  0  0  0  0  0  0  0
    1.6935   -0.3702    0.0000 O   0  0  0  0  0  0  0  0  0  0  0  0
    0.5312   -1.6543    0.0000 N   0  0  0  0  0  0  0  0  0  0  0  0
   -0.2102   -0.9833    0.0000 C   0  0  0  0  0  0  0  0  0  0  0  0
    0.0000    0.0000    0.0000 C   0  0  0  0  0  0  0  0  0  0  0  0
   -0.7466    0.6767    0.0000 C   0  0  0  0  0  0  0  0  0  0  0  0
   -1.6992    0.3634    0.0000 C   0  0  0  0  0  0  0  0  0  0  0  0
   -2.3279    1.1516    0.0000 C   0  0  0  0  0  0  0  0  0  0  0  0
   -3.3320    1.1502    0.0000 C   0  0  0  0  0  0  0  0  0  0  0  0
   -3.9613    0.3569    0.0000 C   0  0  0  0  0  0  0  0  0  0  0  0
   -4.9235    0.6470    0.0000 C   0  0  0  0  0  0  0  0  0  0  0  0
   -5.6612   -0.0428    0.0000 C   0  0  0  0  0  0  0  0  0  0  0  0
   -5.4299   -1.0265    0.0000 C   0  0  0  0  0  0  0  0  0  0  0  0
   -4.4609   -1.3206    0.0000 C   0  0  0  0  0  0  0  0  0  0  0  0
   -3.7300   -0.6268    0.0000 C   0  0  0  0  0  0  0  0  0  0  0  0
   -2.8166   -1.0582    0.0000 N   0  0  0  0  0  0  0  0  0  0  0  0
   -2.8122   -2.0582    0.0000 C   0  0  0  0  0  0  0  0  0  0  0  0
   -3.6760   -2.5620    0.0000 O   0  0  0  0  0  0  0  0  0  0  0  0
   -1.9440   -2.5544    0.0000 C   0  0  0  0  0  0  0  0  0  0  0  0
   -1.9396   -3.5544    0.0000 C   0  0  0  0  0  0  0  0  0  0  0  0
   -1.0714   -4.0506    0.0000 Cl  0  0  0  0  0  0  0  0  0  0  0  0
   -1.9095   -0.6200    0.0000 C   0  0  0  0  0  0  0  0  0  0  0  0
   -1.1671   -1.2900    0.0000 C   0  0  0  0  0  0  0  0  0  0  0  0
  1  2  1  0  0  0  0
  2  3  1  0  0  0  0
  3  4  1  0  0  0  0
  4  5  1  0  0  0  0
  5  6  1  0  0  0  0
  6  7  1  0  0  0  0
  4  8  1  0  0  0  0
  8  9  2  0  0  0  0
  8 10  1  0  0  0  0
 10 11  1  0  0  0  0
 11 30  1  0  0  0  0
 11 12  2  0  0  0  0
 12 13  1  0  0  0  0
 13 14  2  0  0  0  0
 14 29  1  0  0  0  0
 14 15  1  0  0  0  0
 15 16  1  0  0  0  0
 16 17  1  0  0  0  0
 17 22  1  0  0  0  0
 17 18  2  0  0  0  0
 18 19  1  0  0  0  0
 19 20  2  0  0  0  0
 20 21  1  0  0  0  0
 21 22  2  0  0  0  0
 22 23  1  0  0  0  0
 23 24  1  0  0  0  0
 24 25  2  0  0  0  0
 24 26  1  0  0  0  0
 26 27  1  0  0  0  0
 27 28  1  0  0  0  0
 23 29  1  0  0  0  0
 29 30  2  0  0  0  0
M  END
> <JC_XSMILES>
CCCC(CCC)C(=O)NC1=CC=C2CCC3=CC=CC=C3N(C(=O)CCCl)C2=C1

> <GNF-Pf identifier>
GNF-Pf-2766

> <PF proliferation inhibition 3D7 EC50 uM>
0.416

> <W2 Pf proliferation inhibition EC50 uM >
2.577

> <Huh7 cytotox for Pf inhibitiors CC50 uM>
>100

> <Powder data?>
Yes

> <IFI value>
0.018867925

> <Salt>
No salt

> <Equiv of salt>
0

$$$$

  -OEChem-06281415292D

 29 31  0     0  0  0  0  0  0999 V2000
   -4.3776   -8.4615    0.0000 C   0  0  0  0  0  0  0  0  0  0  0  0
   -3.5066   -7.9702    0.0000 C   0  0  0  0  0  0  0  0  0  0  0  0
   -3.9979   -7.0992    0.0000 C   0  0  0  0  0  0  0  0  0  0  0  0
   -3.0153   -8.8412    0.0000 C   0  0  0  0  0  0  0  0  0  0  0  0
   -2.6356   -7.4789    0.0000 C   0  0  0  0  0  0  0  0  0  0  0  0
   -2.6286   -6.4737    0.0000 C   0  0  0  0  0  0  0  0  0  0  0  0
   -1.7576   -5.9823    0.0000 C   0  0  0  0  0  0  0  0  0  0  0  0
   -0.8936   -6.4859    0.0000 C   0  0  0  0  0  0  0  0  0  0  0  0
   -0.9007   -7.4911    0.0000 C   0  0  0  0  0  0  0  0  0  0  0  0
   -1.7717   -7.9927    0.0000 C   0  0  0  0  0  0  0  0  0  0  0  0
   -0.0248   -5.9907    0.0000 C   0  0  0  0  0  0  0  0  0  0  0  0
    0.8384   -6.4955    0.0000 O   0  0  0  0  0  0  0  0  0  0  0  0
   -0.0192   -4.9907    0.0000 N   0  0  0  0  0  0  0  0  0  0  0  0
    0.8496   -4.4956    0.0000 C   0  0  0  0  0  0  0  0  0  0  0  0
    0.8551   -3.4956    0.0000 C   0  0  0  0  0  0  0  0  0  0  0  0
    1.7239   -3.0004    0.0000 C   0  0  0  0  0  0  0  0  0  0  0  0
    1.7295   -2.0004    0.0000 C   0  0  0  0  0  0  0  0  0  0  0  0
    2.5983   -1.5053    0.0000 N   0  0  0  0  0  0  0  0  0  0  0  0
    2.6039   -0.5053    0.0000 C   0  0  0  0  0  0  0  0  0  0  0  0
    3.4805   -0.0073    0.0000 C   0  0  0  0  0  0  0  0  0  0  0  0
    3.4848    1.0014    0.0000 C   0  0  0  0  0  0  0  0  0  0  0  0
    2.6125    1.5125    0.0000 N   0  0  0  0  0  0  0  0  0  0  0  0
    1.7414    1.0089    0.0000 C   0  0  0  0  0  0  0  0  0  0  0  0
    0.8707    1.5185    0.0000 C   0  0  0  0  0  0  0  0  0  0  0  0
    0.0000    1.0089    0.0000 C   0  0  0  0  0  0  0  0  0  0  0  0
   -0.8675    1.5063    0.0000 Cl  0  0  0  0  0  0  0  0  0  0  0  0
    0.0000    0.0000    0.0000 C   0  0  0  0  0  0  0  0  0  0  0  0
    0.8707   -0.4993    0.0000 C   0  0  0  0  0  0  0  0  0  0  0  0
    1.7371    0.0000    0.0000 C   0  0  0  0  0  0  0  0  0  0  0  0
  1  2  1  0  0  0  0
  2  3  1  0  0  0  0
  2  4  1  0  0  0  0
  2  5  1  0  0  0  0
  5 10  1  0  0  0  0
  5  6  2  0  0  0  0
  6  7  1  0  0  0  0
  7  8  2  0  0  0  0
  8  9  1  0  0  0  0
  9 10  2  0  0  0  0
  8 11  1  0  0  0  0
 11 12  2  0  0  0  0
 11 13  1  0  0  0  0
 13 14  1  0  0  0  0
 14 15  1  0  0  0  0
 15 16  1  0  0  0  0
 16 17  1  0  0  0  0
 17 18  1  0  0  0  0
 18 19  1  0  0  0  0
 19 29  1  0  0  0  0
 19 20  2  0  0  0  0
 20 21  1  0  0  0  0
 21 22  2  0  0  0  0
 22 23  1  0  0  0  0
 23 29  1  0  0  0  0
 23 24  2  0  0  0  0
 24 25  1  0  0  0  0
 25 26  1  0  0  0  0
 25 27  2  0  0  0  0
 27 28  1  0  0  0  0
 28 29  2  0  0  0  0
M  END
> <JC_XSMILES>
CC(C)(C)C1=CC=C(C=C1)C(=O)NCCCCNC2=CC=NC3=CC(Cl)=CC=C23

> <GNF-Pf identifier>
GNF-Pf-2988

> <PF proliferation inhibition 3D7 EC50 uM>
0.1765

> <W2 Pf proliferation inhibition EC50 uM >
0.2304

> <Huh7 cytotox for Pf inhibitiors CC50 uM>
>10.93

> <Powder data?>
No

> <IFI value>
0.031914894

> <Salt>
No salt

> <Equiv of salt>
0

$$$$

  -OEChem-06281415292D

 38 41  0     1  0  0  0  0  0999 V2000
   10.1687   -3.6725    0.0000 C   0  0  0  0  0  0  0  0  0  0  0  0
    9.8597   -2.7214    0.0000 C   0  0  0  0  0  0  0  0  0  0  0  0
   10.5289   -1.9783    0.0000 C   0  0  0  0  0  0  0  0  0  0  0  0
    8.8816   -2.5134    0.0000 N   0  0  0  0  0  0  0  0  0  0  0  0
    8.5726   -1.5624    0.0000 C   0  0  0  0  0  0  0  0  0  0  0  0
    9.2418   -0.8193    0.0000 O   0  0  0  0  0  0  0  0  0  0  0  0
    7.5945   -1.3544    0.0000 N   0  0  0  0  0  0  0  0  0  0  0  0
    6.9177   -2.0973    0.0000 C   0  0  0  0  0  0  0  0  0  0  0  0
    5.9346   -1.8883    0.0000 C   0  0  0  0  0  0  0  0  0  0  0  0
    5.6282   -0.9364    0.0000 N   0  0  0  0  0  0  0  0  0  0  0  0
    6.2953   -0.1914    0.0000 C   0  0  0  0  0  0  0  0  0  0  0  0
    7.2784   -0.4004    0.0000 C   0  0  3  0  0  0  0  0  0  0  0  0
    7.9455    0.3446    0.0000 C   0  0  0  0  0  0  0  0  0  0  0  0
    4.6501   -0.7284    0.0000 C   0  0  0  0  0  0  0  0  0  0  0  0
    4.3411    0.2227    0.0000 O   0  0  0  0  0  0  0  0  0  0  0  0
    3.9809   -1.4715    0.0000 C   0  0  3  0  0  0  0  0  0  0  0  0
    3.0028   -1.2636    0.0000 C   0  0  0  0  0  0  0  0  0  0  0  0
    2.6938   -0.3125    0.0000 C   0  0  0  0  0  0  0  0  0  0  0  0
    3.2858    0.5023    0.0000 C   0  0  0  0  0  0  0  0  0  0  0  0
    2.6938    1.3169    0.0000 N   0  0  0  0  0  0  0  0  0  0  0  0
    1.7360    1.0058    0.0000 C   0  0  0  0  0  0  0  0  0  0  0  0
    0.8680    1.5138    0.0000 C   0  0  0  0  0  0  0  0  0  0  0  0
    0.0000    1.0058    0.0000 C   0  0  0  0  0  0  0  0  0  0  0  0
    0.0000    0.0000    0.0000 C   0  0  0  0  0  0  0  0  0  0  0  0
    0.8680   -0.4978    0.0000 C   0  0  0  0  0  0  0  0  0  0  0  0
    1.7360   -0.0012    0.0000 C   0  0  0  0  0  0  0  0  0  0  0  0
    4.2899   -2.4226    0.0000 N   0  0  0  0  0  0  0  0  0  0  0  0
    3.6207   -3.1657    0.0000 C   0  0  0  0  0  0  0  0  0  0  0  0
    2.6426   -2.9578    0.0000 O   0  0  0  0  0  0  0  0  0  0  0  0
    3.9297   -4.1168    0.0000 N   0  0  0  0  0  0  0  0  0  0  0  0
    3.2605   -4.8599    0.0000 C   0  0  0  0  0  0  0  0  0  0  0  0
    3.5739   -5.8150    0.0000 C   0  0  0  0  0  0  0  0  0  0  0  0
    2.9048   -6.5582    0.0000 C   0  0  0  0  0  0  0  0  0  0  0  0
    1.9254   -6.3559    0.0000 C   0  0  0  0  0  0  0  0  0  0  0  0
    1.6120   -5.4008    0.0000 C   0  0  0  0  0  0  0  0  0  0  0  0
    2.2780   -4.6480    0.0000 C   0  0  0  0  0  0  0  0  0  0  0  0
    0.6326   -5.1986    0.0000 C   0  0  0  0  0  0  0  0  0  0  0  0
   -0.3467   -4.9965    0.0000 N   0  0  0  0  0  0  0  0  0  0  0  0
  1  2  1  0  0  0  0
  2  3  1  0  0  0  0
  2  4  1  0  0  0  0
  4  5  1  0  0  0  0
  5  6  2  0  0  0  0
  5  7  1  0  0  0  0
  7 12  1  0  0  0  0
  7  8  1  0  0  0  0
  8  9  1  0  0  0  0
  9 10  1  0  0  0  0
 10 11  1  0  0  0  0
 11 12  1  0  0  0  0
 12 13  1  0  0  0  0
 10 14  1  0  0  0  0
 14 15  2  0  0  0  0
 14 16  1  0  0  0  0
 16 17  1  0  0  0  0
 17 18  1  0  0  0  0
 18 26  1  0  0  0  0
 18 19  2  0  0  0  0
 19 20  1  0  0  0  0
 20 21  1  0  0  0  0
 21 26  1  0  0  0  0
 21 22  2  0  0  0  0
 22 23  1  0  0  0  0
 23 24  2  0  0  0  0
 24 25  1  0  0  0  0
 25 26  2  0  0  0  0
 16 27  1  0  0  0  0
 27 28  1  0  0  0  0
 28 29  2  0  0  0  0
 28 30  1  0  0  0  0
 30 31  1  0  0  0  0
 31 36  1  0  0  0  0
 31 32  2  0  0  0  0
 32 33  1  0  0  0  0
 33 34  2  0  0  0  0
 34 35  1  0  0  0  0
 35 36  2  0  0  0  0
 35 37  1  0  0  0  0
 37 38  3  0  0  0  0
M  END
> <JC_XSMILES>
CC(C)NC(=O)N1CCN(CC1C)C(=O)C(CC2=CNC3=CC=CC=C23)NC(=O)NC4=CC=CC(=C4)C#N

> <GNF-Pf identifier>
GNF-Pf-2989

> <PF proliferation inhibition 3D7 EC50 uM>
0.0567

> <W2 Pf proliferation inhibition EC50 uM >
0.2106

> <Huh7 cytotox for Pf inhibitiors CC50 uM>
>10

> <Powder data?>
No

> <IFI value>
0.018348624

> <Salt>
No salt

> <Equiv of salt>
0

$$$$

  -OEChem-06281415292D

 31 34  0     0  0  0  0  0  0999 V2000
    5.2916    0.6970    0.0000 C   0  0  0  0  0  0  0  0  0  0  0  0
    4.3761    1.0992    0.0000 S   0  0  0  0  0  0  0  0  0  0  0  0
    3.5700    0.5074    0.0000 C   0  0  0  0  0  0  0  0  0  0  0  0
    3.5750   -0.5016    0.0000 N   0  0  0  0  0  0  0  0  0  0  0  0
    2.6170   -0.8182    0.0000 C   0  0  0  0  0  0  0  0  0  0  0  0
    2.3128   -1.7708    0.0000 N   0  0  0  0  0  0  0  0  0  0  0  0
    2.9857   -2.5106    0.0000 C   0  0  0  0  0  0  0  0  0  0  0  0
    3.9631   -2.2991    0.0000 C   0  0  0  0  0  0  0  0  0  0  0  0
    4.6393   -3.0359    0.0000 C   0  0  0  0  0  0  0  0  0  0  0  0
    4.3349   -3.9939    0.0000 C   0  0  0  0  0  0  0  0  0  0  0  0
    3.3544   -4.2151    0.0000 C   0  0  0  0  0  0  0  0  0  0  0  0
    2.6813   -3.4686    0.0000 C   0  0  0  0  0  0  0  0  0  0  0  0
    1.7039   -3.6800    0.0000 C   0  0  0  0  0  0  0  0  0  0  0  0
    2.0197   -0.0049    0.0000 C   0  0  0  0  0  0  0  0  0  0  0  0
    1.5163   -0.8690    0.0000 C   0  0  0  0  0  0  0  0  0  0  0  0
    0.5073   -0.8690    0.0000 C   0  0  0  0  0  0  0  0  0  0  0  0
    0.0000    0.0000    0.0000 C   0  0  0  0  0  0  0  0  0  0  0  0
    0.5073    0.8746    0.0000 C   0  0  0  0  0  0  0  0  0  0  0  0
    1.5163    0.8746    0.0000 C   0  0  0  0  0  0  0  0  0  0  0  0
   -1.0000   -0.0014    0.0000 C   0  0  0  0  0  0  0  0  0  0  0  0
   -0.9986   -1.0014    0.0000 C   0  0  0  0  0  0  0  0  0  0  0  0
   -1.0014    0.9986    0.0000 C   0  0  0  0  0  0  0  0  0  0  0  0
   -2.0000   -0.0028    0.0000 C   0  0  0  0  0  0  0  0  0  0  0  0
    2.6088    0.8144    0.0000 N   0  0  0  0  0  0  0  0  0  0  0  0
    2.2951    1.7639    0.0000 C   0  0  0  0  0  0  0  0  0  0  0  0
    1.3102    1.9651    0.0000 C   0  0  0  0  0  0  0  0  0  0  0  0
    0.9964    2.9146    0.0000 C   0  0  0  0  0  0  0  0  0  0  0  0
    1.6575    3.6650    0.0000 C   0  0  0  0  0  0  0  0  0  0  0  0
    1.3396    4.6131    0.0000 O   0  0  0  0  0  0  0  0  0  0  0  0
    2.6423    3.4638    0.0000 C   0  0  0  0  0  0  0  0  0  0  0  0
    2.9661    2.5122    0.0000 C   0  0  0  0  0  0  0  0  0  0  0  0
  1  2  1  0  0  0  0
  2  3  1  0  0  0  0
  3 24  1  0  0  0  0
  3  4  2  0  0  0  0
  4  5  1  0  0  0  0
  5  6  2  3  0  0  0
  6  7  1  0  0  0  0
  7 12  1  0  0  0  0
  7  8  2  0  0  0  0
  8  9  1  0  0  0  0
  9 10  2  0  0  0  0
 10 11  1  0  0  0  0
 11 12  2  0  0  0  0
 12 13  1  0  0  0  0
  5 14  1  0  0  0  0
 14 19  1  0  0  0  0
 14 15  1  0  0  0  0
 15 16  1  0  0  0  0
 16 17  1  0  0  0  0
 17 18  1  0  0  0  0
 18 19  1  0  0  0  0
 17 20  1  0  0  0  0
 20 21  1  0  0  0  0
 20 22  1  0  0  0  0
 20 23  1  0  0  0  0
 14 24  1  0  0  0  0
 24 25  1  0  0  0  0
 25 31  1  0  0  0  0
 25 26  2  0  0  0  0
 26 27  1  0  0  0  0
 27 28  2  0  0  0  0
 28 29  1  0  0  0  0
 28 30  1  0  0  0  0
 30 31  2  0  0  0  0
M  END
> <JC_XSMILES>
CSC1=NC(=NC2=CC=CC=C2C)C3(CCC(CC3)C(C)(C)C)N1C4=CC=C(O)C=C4

> <GNF-Pf identifier>
GNF-Pf-3002

> <PF proliferation inhibition 3D7 EC50 uM>
0.2428

> <W2 Pf proliferation inhibition EC50 uM >
0.208

> <Huh7 cytotox for Pf inhibitiors CC50 uM>
>10

> <Powder data?>
No

> <IFI value>
0

> <Salt>
No salt

> <Equiv of salt>
0

$$$$

  -OEChem-06281415292D

 31 34  0     0  0  0  0  0  0999 V2000
    7.8317    2.4833    0.0000 C   0  0  0  0  0  0  0  0  0  0  0  0
    6.9684    2.9879    0.0000 C   0  0  0  0  0  0  0  0  0  0  0  0
    6.0997    2.4926    0.0000 N   0  0  0  0  0  0  0  0  0  0  0  0
    5.2292    2.9947    0.0000 C   0  0  0  0  0  0  0  0  0  0  0  0
    4.3560    2.4968    0.0000 C   0  0  0  0  0  0  0  0  0  0  0  0
    4.3535    1.4968    0.0000 N   0  0  0  0  0  0  0  0  0  0  0  0
    5.2154    0.9898    0.0000 C   0  0  0  0  0  0  0  0  0  0  0  0
    6.0885    1.4877    0.0000 C   0  0  0  0  0  0  0  0  0  0  0  0
    3.4848    1.0014    0.0000 C   0  0  0  0  0  0  0  0  0  0  0  0
    3.4805   -0.0073    0.0000 C   0  0  0  0  0  0  0  0  0  0  0  0
    2.6039   -0.5053    0.0000 C   0  0  0  0  0  0  0  0  0  0  0  0
    2.5983   -1.5053    0.0000 C   0  0  0  0  0  0  0  0  0  0  0  0
    1.7371   -0.0000    0.0000 C   0  0  0  0  0  0  0  0  0  0  0  0
    0.8707   -0.4993    0.0000 C   0  0  0  0  0  0  0  0  0  0  0  0
    0.0000    0.0000    0.0000 C   0  0  0  0  0  0  0  0  0  0  0  0
   -0.8653   -0.5013    0.0000 N   0  0  0  0  0  0  0  0  0  0  0  0
   -0.8638   -1.5013    0.0000 C   0  0  0  0  0  0  0  0  0  0  0  0
    0.0029   -2.0000    0.0000 O   0  0  0  0  0  0  0  0  0  0  0  0
   -1.7291   -2.0025    0.0000 C   0  0  0  0  0  0  0  0  0  0  0  0
   -1.7277   -3.0025    0.0000 C   0  0  0  0  0  0  0  0  0  0  0  0
   -2.5929   -3.5038    0.0000 C   0  0  0  0  0  0  0  0  0  0  0  0
   -3.4627   -2.9999    0.0000 C   0  0  0  0  0  0  0  0  0  0  0  0
   -4.3281   -3.5012    0.0000 C   0  0  0  0  0  0  0  0  0  0  0  0
   -4.3325   -4.5012    0.0000 C   0  0  0  0  0  0  0  0  0  0  0  0
   -3.4627   -5.0051    0.0000 C   0  0  0  0  0  0  0  0  0  0  0  0
   -3.4671   -6.0051    0.0000 Cl  0  0  0  0  0  0  0  0  0  0  0  0
   -2.5885   -4.5089    0.0000 C   0  0  0  0  0  0  0  0  0  0  0  0
   -0.0000    1.0089    0.0000 C   0  0  0  0  0  0  0  0  0  0  0  0
    0.8707    1.5185    0.0000 C   0  0  0  0  0  0  0  0  0  0  0  0
    1.7414    1.0089    0.0000 C   0  0  0  0  0  0  0  0  0  0  0  0
    2.6125    1.5125    0.0000 N   0  0  0  0  0  0  0  0  0  0  0  0
  1  2  1  0  0  0  0
  2  3  1  0  0  0  0
  3  8  1  0  0  0  0
  3  4  1  0  0  0  0
  4  5  1  0  0  0  0
  5  6  1  0  0  0  0
  6  7  1  0  0  0  0
  7  8  1  0  0  0  0
  6  9  1  0  0  0  0
  9 31  1  0  0  0  0
  9 10  2  0  0  0  0
 10 11  1  0  0  0  0
 11 12  1  0  0  0  0
 11 13  2  0  0  0  0
 13 30  1  0  0  0  0
 13 14  1  0  0  0  0
 14 15  2  0  0  0  0
 15 16  1  0  0  0  0
 16 17  1  0  0  0  0
 17 18  2  0  0  0  0
 17 19  1  0  0  0  0
 19 20  2  3  0  0  0
 20 21  1  0  0  0  0
 21 27  1  0  0  0  0
 21 22  2  0  0  0  0
 22 23  1  0  0  0  0
 23 24  2  0  0  0  0
 24 25  1  0  0  0  0
 25 26  1  0  0  0  0
 25 27  2  0  0  0  0
 15 28  1  0  0  0  0
 28 29  2  0  0  0  0
 29 30  1  0  0  0  0
 30 31  2  0  0  0  0
M  END
> <JC_XSMILES>
CCN1CCN(CC1)C2=CC(C)=C3C=C(NC(=O)C=CC4=CC=CC(Cl)=C4)C=CC3=N2

> <GNF-Pf identifier>
GNF-Pf-3017

> <PF proliferation inhibition 3D7 EC50 uM>
0.824

> <W2 Pf proliferation inhibition EC50 uM >
1.26

> <Huh7 cytotox for Pf inhibitiors CC50 uM>
61.37

> <Powder data?>
Yes

> <IFI value>
N/A

> <Salt>
No salt

> <Equiv of salt>
0

$$$$

  -OEChem-06281415292D

 29 30  0     1  0  0  0  0  0999 V2000
   -3.4605   -3.0063    0.0000 C   0  0  0  0  0  0  0  0  0  0  0  0
   -2.5952   -2.5050    0.0000 C   0  0  0  0  0  0  0  0  0  0  0  0
   -2.5966   -1.5050    0.0000 C   0  0  3  0  0  0  0  0  0  0  0  0
   -3.4634   -1.0063    0.0000 C   0  0  0  0  0  0  0  0  0  0  0  0
   -4.3287   -1.5075    0.0000 O   0  0  0  0  0  0  0  0  0  0  0  0
   -5.1954   -1.0088    0.0000 C   0  0  0  0  0  0  0  0  0  0  0  0
   -1.7313   -1.0038    0.0000 N   0  0  0  0  0  0  0  0  0  0  0  0
   -1.7328   -0.0038    0.0000 C   0  0  0  0  0  0  0  0  0  0  0  0
   -2.5995    0.4950    0.0000 O   0  0  0  0  0  0  0  0  0  0  0  0
   -0.8675    0.4975    0.0000 C   0  0  0  0  0  0  0  0  0  0  0  0
   -0.8675    1.5027    0.0000 C   0  0  0  0  0  0  0  0  0  0  0  0
    0.0000    2.0104    0.0000 N   0  0  0  0  0  0  0  0  0  0  0  0
    0.8675    1.5027    0.0000 C   0  0  0  0  0  0  0  0  0  0  0  0
    0.8675    0.4975    0.0000 C   0  0  0  0  0  0  0  0  0  0  0  0
    1.7328   -0.0038    0.0000 C   0  0  0  0  0  0  0  0  0  0  0  0
    1.7313   -1.0038    0.0000 O   0  0  0  0  0  0  0  0  0  0  0  0
    2.5995    0.4950    0.0000 N   0  0  0  0  0  0  0  0  0  0  0  0
    3.4648   -0.0063    0.0000 C   0  0  0  0  0  0  0  0  0  0  0  0
    3.9661    0.8590    0.0000 C   0  0  0  0  0  0  0  0  0  0  0  0
    2.9636   -0.8716    0.0000 C   0  0  0  0  0  0  0  0  0  0  0  0
    4.3301   -0.5075    0.0000 C   0  0  0  0  0  0  0  0  0  0  0  0
    0.0000    0.0000    0.0000 C   0  0  0  0  0  0  0  0  0  0  0  0
   -0.0000   -1.0000    0.0000 O   0  0  0  0  0  0  0  0  0  0  0  0
    0.0000    3.0104    0.0000 C   0  0  0  0  0  0  0  0  0  0  0  0
   -0.8720    3.5104    0.0000 C   0  0  0  0  0  0  0  0  0  0  0  0
   -0.8721    4.5105    0.0000 C   0  0  0  0  0  0  0  0  0  0  0  0
   -0.0089    5.0155    0.0000 C   0  0  0  0  0  0  0  0  0  0  0  0
    0.8631    4.5155    0.0000 C   0  0  0  0  0  0  0  0  0  0  0  0
    0.8720    3.5104    0.0000 C   0  0  0  0  0  0  0  0  0  0  0  0
  1  2  1  0  0  0  0
  2  3  1  0  0  0  0
  3  4  1  0  0  0  0
  4  5  1  0  0  0  0
  5  6  1  0  0  0  0
  3  7  1  0  0  0  0
  7  8  1  0  0  0  0
  8  9  2  0  0  0  0
  8 10  1  0  0  0  0
 10 22  1  0  0  0  0
 10 11  2  0  0  0  0
 11 12  1  0  0  0  0
 12 13  1  0  0  0  0
 13 14  2  0  0  0  0
 14 15  1  0  0  0  0
 15 16  2  0  0  0  0
 15 17  1  0  0  0  0
 17 18  1  0  0  0  0
 18 19  1  0  0  0  0
 18 20  1  0  0  0  0
 18 21  1  0  0  0  0
 14 22  1  0  0  0  0
 22 23  2  0  0  0  0
 12 24  1  0  0  0  0
 24 29  1  0  0  0  0
 24 25  1  0  0  0  0
 25 26  1  0  0  0  0
 26 27  1  0  0  0  0
 27 28  1  0  0  0  0
 28 29  1  0  0  0  0
M  END
> <JC_XSMILES>
CCC(COC)NC(=O)C1=CN(C=C(C(=O)NC(C)(C)C)C1=O)C2CCCCC2

> <GNF-Pf identifier>
GNF-Pf-3052

> <PF proliferation inhibition 3D7 EC50 uM>
2.903

> <W2 Pf proliferation inhibition EC50 uM >
1.985

> <Huh7 cytotox for Pf inhibitiors CC50 uM>
>100

> <Powder data?>
Yes

> <IFI value>
0.017094017

> <Salt>
No salt

> <Equiv of salt>
0

$$$$

  -OEChem-06281415292D

 21 23  0     0  0  0  0  0  0999 V2000
   -0.5889   -0.8082    0.0000 O   0  0  0  0  0  0  0  0  0  0  0  0
    0.0000    0.0000    0.0000 C   0  0  0  0  0  0  0  0  0  0  0  0
    1.0014   -0.0000    0.0000 N   0  0  0  0  0  0  0  0  0  0  0  0
    1.3131    0.9519    0.0000 C   0  0  0  0  0  0  0  0  0  0  0  0
    2.2646    1.2597    0.0000 S   0  0  0  0  0  0  0  0  0  0  0  0
    0.5007    1.5426    0.0000 N   0  0  0  0  0  0  0  0  0  0  0  0
   -0.3065    0.9519    0.0000 C   0  0  0  0  0  0  0  0  0  0  0  0
   -1.2577    1.2606    0.0000 C   0  0  0  0  0  0  0  0  0  0  0  0
   -2.0006    0.5911    0.0000 C   0  0  0  0  0  0  0  0  0  0  0  0
   -1.7883   -0.3914    0.0000 C   0  0  0  0  0  0  0  0  0  0  0  0
   -2.5312   -1.0609    0.0000 C   0  0  0  0  0  0  0  0  0  0  0  0
   -3.4842   -0.7578    0.0000 C   0  0  0  0  0  0  0  0  0  0  0  0
   -3.6964    0.2247    0.0000 C   0  0  0  0  0  0  0  0  0  0  0  0
   -4.6494    0.5278    0.0000 O   0  0  0  0  0  0  0  0  0  0  0  0
   -4.8635    1.5046    0.0000 C   0  0  0  0  0  0  0  0  0  0  0  0
   -4.1187    2.1797    0.0000 C   0  0  0  0  0  0  0  0  0  0  0  0
   -4.3327    3.1566    0.0000 C   0  0  0  0  0  0  0  0  0  0  0  0
   -5.2839    3.4652    0.0000 C   0  0  0  0  0  0  0  0  0  0  0  0
   -6.0287    2.7901    0.0000 C   0  0  0  0  0  0  0  0  0  0  0  0
   -5.8222    1.8064    0.0000 C   0  0  0  0  0  0  0  0  0  0  0  0
   -2.9557    0.9042    0.0000 C   0  0  0  0  0  0  0  0  0  0  0  0
  1  2  2  0  0  0  0
  2  7  1  0  0  0  0
  2  3  1  0  0  0  0
  3  4  1  0  0  0  0
  4  5  2  0  0  0  0
  4  6  1  0  0  0  0
  6  7  1  0  0  0  0
  7  8  2  0  0  0  0
  8  9  1  0  0  0  0
  9 21  1  0  0  0  0
  9 10  2  0  0  0  0
 10 11  1  0  0  0  0
 11 12  2  0  0  0  0
 12 13  1  0  0  0  0
 13 14  1  0  0  0  0
 14 15  1  0  0  0  0
 15 20  1  0  0  0  0
 15 16  2  0  0  0  0
 16 17  1  0  0  0  0
 17 18  2  0  0  0  0
 18 19  1  0  0  0  0
 19 20  2  0  0  0  0
 13 21  2  0  0  0  0
M  END
> <JC_XSMILES>
O=C1NC(=S)N\C1=C\C2=CC=CC(OC3=CC=CC=C3)=C2

> <GNF-Pf identifier>
GNF-Pf-3099

> <PF proliferation inhibition 3D7 EC50 uM>
1.885

> <W2 Pf proliferation inhibition EC50 uM >
>0.1909

> <Huh7 cytotox for Pf inhibitiors CC50 uM>
>10

> <Powder data?>
No

> <IFI value>
0

> <Salt>
No salt

> <Equiv of salt>
0

$$$$

  -OEChem-06281415292D

 27 30  0     1  0  0  0  0  0999 V2000
    6.9501   -4.9369    0.0000 C   0  0  0  0  0  0  0  0  0  0  0  0
    7.2720   -3.9902    0.0000 O   0  0  0  0  0  0  0  0  0  0  0  0
    6.6131   -3.2380    0.0000 C   0  0  0  0  0  0  0  0  0  0  0  0
    5.6277   -3.4364    0.0000 C   0  0  0  0  0  0  0  0  0  0  0  0
    4.9687   -2.6842    0.0000 C   0  0  0  0  0  0  0  0  0  0  0  0
    5.2851   -1.7356    0.0000 C   0  0  0  0  0  0  0  0  0  0  0  0
    6.2705   -1.5371    0.0000 C   0  0  0  0  0  0  0  0  0  0  0  0
    6.9395   -2.2873    0.0000 C   0  0  0  0  0  0  0  0  0  0  0  0
    4.6229   -0.9863    0.0000 N   0  0  0  0  0  0  0  0  0  0  0  0
    3.6310   -1.1862    0.0000 C   0  0  0  0  0  0  0  0  0  0  0  0
    3.3132   -2.1344    0.0000 O   0  0  0  0  0  0  0  0  0  0  0  0
    2.9631   -0.4326    0.0000 C   0  0  0  0  0  0  0  0  0  0  0  0
    3.2835    0.5280    0.0000 C   0  0  0  0  0  0  0  0  0  0  0  0
    2.4666    1.1220    0.0000 S   0  0  0  0  0  0  0  0  0  0  0  0
    1.6566    0.5296    0.0000 C   0  0  0  0  0  0  0  0  0  0  0  0
    1.9631   -0.4291    0.0000 C   0  0  0  0  0  0  0  0  0  0  0  0
    1.2916   -1.1750    0.0000 C   0  0  0  0  0  0  0  0  0  0  0  0
    0.3065   -0.9587    0.0000 C   0  0  0  0  0  0  0  0  0  0  0  0
    0.0000    0.0000    0.0000 N   0  0  3  0  0  0  0  0  0  0  0  0
   -0.9769    0.2139    0.0000 C   0  0  0  0  0  0  0  0  0  0  0  0
    0.6786    0.7423    0.0000 C   0  0  0  0  0  0  0  0  0  0  0  0
    4.2719    0.7349    0.0000 N   0  0  0  0  0  0  0  0  0  0  0  0
    4.9434   -0.0258    0.0000 C   0  0  0  0  0  0  0  0  0  0  0  0
    5.9234    0.1734    0.0000 S   0  0  0  0  0  0  0  0  0  0  0  0
    6.2408    1.1217    0.0000 C   0  0  0  0  0  0  0  0  0  0  0  0
    5.5783    1.8708    0.0000 C   0  0  0  0  0  0  0  0  0  0  0  0
    7.2208    1.3209    0.0000 C   0  0  0  0  0  0  0  0  0  0  0  0
  1  2  1  0  0  0  0
  2  3  1  0  0  0  0
  3  8  1  0  0  0  0
  3  4  2  0  0  0  0
  4  5  1  0  0  0  0
  5  6  2  0  0  0  0
  6  7  1  0  0  0  0
  7  8  2  0  0  0  0
  6  9  1  0  0  0  0
  9 23  1  0  0  0  0
  9 10  1  0  0  0  0
 10 11  2  0  0  0  0
 10 12  1  0  0  0  0
 12 16  1  0  0  0  0
 12 13  2  0  0  0  0
 13 14  1  0  0  0  0
 14 15  1  0  0  0  0
 15 21  1  0  0  0  0
 15 16  2  0  0  0  0
 16 17  1  0  0  0  0
 17 18  1  0  0  0  0
 18 19  1  0  0  0  0
 19 20  1  0  0  0  0
 19 21  1  0  0  0  0
 13 22  1  0  0  0  0
 22 23  2  0  0  0  0
 23 24  1  0  0  0  0
 24 25  1  0  0  0  0
 25 26  1  0  0  0  0
 25 27  1  0  0  0  0
M  END
> <JC_XSMILES>
COC1=CC=C(C=C1)N2C(=O)C3=C(SC4=C3CCN(C)C4)N=C2SC(C)C

> <GNF-Pf identifier>
GNF-Pf-3132

> <PF proliferation inhibition 3D7 EC50 uM>
2.209

> <W2 Pf proliferation inhibition EC50 uM >
1.853

> <Huh7 cytotox for Pf inhibitiors CC50 uM>
>100

> <Powder data?>
Yes

> <IFI value>
0.024390244

> <Salt>
No salt

> <Equiv of salt>
0

$$$$

  -OEChem-06281415292D

 20 21  0     0  0  0  0  0  0999 V2000
    2.6120    7.5015    0.0000 C   0  0  0  0  0  0  0  0  0  0  0  0
    2.6106    6.5015    0.0000 O   0  0  0  0  0  0  0  0  0  0  0  0
    3.4759    6.0002    0.0000 C   0  0  0  0  0  0  0  0  0  0  0  0
    4.3434    6.4977    0.0000 C   0  0  0  0  0  0  0  0  0  0  0  0
    5.2109    6.0002    0.0000 C   0  0  0  0  0  0  0  0  0  0  0  0
    5.2109    4.9950    0.0000 C   0  0  0  0  0  0  0  0  0  0  0  0
    4.3434    4.4873    0.0000 C   0  0  0  0  0  0  0  0  0  0  0  0
    3.4759    4.9950    0.0000 C   0  0  0  0  0  0  0  0  0  0  0  0
    2.6084    4.4976    0.0000 C   0  0  0  0  0  0  0  0  0  0  0  0
    1.7438    5.0001    0.0000 O   0  0  0  0  0  0  0  0  0  0  0  0
    2.6054    3.4976    0.0000 N   0  0  0  0  0  0  0  0  0  0  0  0
    1.7379    3.0001    0.0000 N   0  0  0  0  0  0  0  0  0  0  0  0
    1.7350    2.0001    0.0000 C   0  0  0  0  0  0  0  0  0  0  0  0
    2.5995    1.4976    0.0000 O   0  0  0  0  0  0  0  0  0  0  0  0
    0.8675    1.5027    0.0000 C   0  0  0  0  0  0  0  0  0  0  0  0
    0.8675    0.4975    0.0000 C   0  0  0  0  0  0  0  0  0  0  0  0
    0.0000    0.0000    0.0000 C   0  0  0  0  0  0  0  0  0  0  0  0
   -0.8675    0.4975    0.0000 C   0  0  0  0  0  0  0  0  0  0  0  0
   -0.8675    1.5027    0.0000 C   0  0  0  0  0  0  0  0  0  0  0  0
    0.0000    2.0104    0.0000 N   0  0  0  0  0  0  0  0  0  0  0  0
  1  2  1  0  0  0  0
  2  3  1  0  0  0  0
  3  8  1  0  0  0  0
  3  4  2  0  0  0  0
  4  5  1  0  0  0  0
  5  6  2  0  0  0  0
  6  7  1  0  0  0  0
  7  8  2  0  0  0  0
  8  9  1  0  0  0  0
  9 10  2  0  0  0  0
  9 11  1  0  0  0  0
 11 12  1  0  0  0  0
 12 13  1  0  0  0  0
 13 14  2  0  0  0  0
 13 15  1  0  0  0  0
 15 20  1  0  0  0  0
 15 16  2  0  0  0  0
 16 17  1  0  0  0  0
 17 18  2  0  0  0  0
 18 19  1  0  0  0  0
 19 20  2  0  0  0  0
M  END
> <JC_XSMILES>
COC1=CC=CC=C1C(=O)NNC(=O)C2=CC=CC=N2

> <GNF-Pf identifier>
GNF-Pf-320

> <PF proliferation inhibition 3D7 EC50 uM>
1.711

> <W2 Pf proliferation inhibition EC50 uM >
1.376

> <Huh7 cytotox for Pf inhibitiors CC50 uM>
8.7

> <Powder data?>
Yes

> <IFI value>
0.121212121

> <Salt>
No salt

> <Equiv of salt>
0

$$$$

  -OEChem-06281415292D

 29 33  0     1  0  0  0  0  0999 V2000
    6.2962    0.5025    0.0000 C   0  0  0  0  0  0  0  0  0  0  0  0
    5.7988   -0.3651    0.0000 C   0  0  0  0  0  0  0  0  0  0  0  0
    4.7936   -0.3651    0.0000 C   0  0  0  0  0  0  0  0  0  0  0  0
    4.2858    0.5024    0.0000 N   0  0  0  0  0  0  0  0  0  0  0  0
    4.7935    1.3699    0.0000 C   0  0  0  0  0  0  0  0  0  0  0  0
    5.7987    1.3699    0.0000 C   0  0  0  0  0  0  0  0  0  0  0  0
    3.2858    0.5023    0.0000 C   0  0  0  0  0  0  0  0  0  0  0  0
    2.6938   -0.3125    0.0000 N   0  0  0  0  0  0  0  0  0  0  0  0
    1.7360   -0.0012    0.0000 C   0  0  0  0  0  0  0  0  0  0  0  0
    1.7360    1.0058    0.0000 C   0  0  0  0  0  0  0  0  0  0  0  0
    0.8680    1.5138    0.0000 C   0  0  0  0  0  0  0  0  0  0  0  0
    0.0000    1.0058    0.0000 N   0  0  3  0  0  0  0  0  0  0  0  0
    0.0000    0.0000    0.0000 C   0  0  0  0  0  0  0  0  0  0  0  0
    0.8680   -0.4978    0.0000 C   0  0  0  0  0  0  0  0  0  0  0  0
   -0.8675    1.5032    0.0000 C   0  0  0  0  0  0  0  0  0  0  0  0
   -1.7320    1.0007    0.0000 C   0  0  0  0  0  0  0  0  0  0  0  0
   -2.6026    1.5033    0.0000 C   0  0  0  0  0  0  0  0  0  0  0  0
   -3.4672    1.0008    0.0000 C   0  0  0  0  0  0  0  0  0  0  0  0
   -3.4701    0.0007    0.0000 C   0  0  0  0  0  0  0  0  0  0  0  0
   -2.5995   -0.5019    0.0000 C   0  0  0  0  0  0  0  0  0  0  0  0
   -2.6025   -1.5019    0.0000 O   0  0  0  0  0  0  0  0  0  0  0  0
   -1.7379   -2.0044    0.0000 C   0  0  0  0  0  0  0  0  0  0  0  0
   -0.8674   -1.5018    0.0000 C   0  0  0  0  0  0  0  0  0  0  0  0
   -0.0028   -2.0043    0.0000 C   0  0  0  0  0  0  0  0  0  0  0  0
    0.0001   -3.0044    0.0000 C   0  0  0  0  0  0  0  0  0  0  0  0
   -0.8704   -3.5070    0.0000 C   0  0  0  0  0  0  0  0  0  0  0  0
   -1.7439   -3.0095    0.0000 C   0  0  0  0  0  0  0  0  0  0  0  0
   -1.7261   -0.0044    0.0000 C   0  0  0  0  0  0  0  0  0  0  0  0
    2.6938    1.3169    0.0000 S   0  0  0  0  0  0  0  0  0  0  0  0
  1  6  1  0  0  0  0
  1  2  1  0  0  0  0
  2  3  1  0  0  0  0
  3  4  1  0  0  0  0
  4  5  1  0  0  0  0
  5  6  1  0  0  0  0
  4  7  1  0  0  0  0
  7 29  1  0  0  0  0
  7  8  2  0  0  0  0
  8  9  1  0  0  0  0
  9 14  1  0  0  0  0
  9 10  2  0  0  0  0
 10 11  1  0  0  0  0
 11 12  1  0  0  0  0
 12 13  1  0  0  0  0
 13 14  1  0  0  0  0
 12 15  1  0  0  0  0
 15 16  1  0  0  0  0
 16 28  1  0  0  0  0
 16 17  2  0  0  0  0
 17 18  1  0  0  0  0
 18 19  2  0  0  0  0
 19 20  1  0  0  0  0
 20 21  1  0  0  0  0
 21 22  1  0  0  0  0
 22 27  1  0  0  0  0
 22 23  2  0  0  0  0
 23 24  1  0  0  0  0
 24 25  2  0  0  0  0
 25 26  1  0  0  0  0
 26 27  2  0  0  0  0
 20 28  2  0  0  0  0
 10 29  1  0  0  0  0
M  END
> <JC_XSMILES>
C1CCN(CC1)C2=NC3=C(CN(CC3)CC4=CC=CC(OC5=CC=CC=C5)=C4)S2

> <GNF-Pf identifier>
GNF-Pf-3209

> <PF proliferation inhibition 3D7 EC50 uM>
0.2937

> <W2 Pf proliferation inhibition EC50 uM >
0.1731

> <Huh7 cytotox for Pf inhibitiors CC50 uM>
>10

> <Powder data?>
No

> <IFI value>
0.183098592

> <Salt>
No salt

> <Equiv of salt>
0

$$$$

  -OEChem-06281415292D

 28 30  0     0  0  0  0  0  0999 V2000
   -1.7408    2.9949    0.0000 C   0  0  0  0  0  0  0  0  0  0  0  0
   -1.7379    1.9950    0.0000 C   0  0  0  0  0  0  0  0  0  0  0  0
   -0.8704    1.4975    0.0000 O   0  0  0  0  0  0  0  0  0  0  0  0
   -0.8675    0.4975    0.0000 C   0  0  0  0  0  0  0  0  0  0  0  0
   -1.7320   -0.0050    0.0000 O   0  0  0  0  0  0  0  0  0  0  0  0
    0.0000    0.0000    0.0000 C   0  0  0  0  0  0  0  0  0  0  0  0
   -0.0000   -1.0058    0.0000 C   0  0  0  0  0  0  0  0  0  0  0  0
    0.8680   -1.5037    0.0000 C   0  0  0  0  0  0  0  0  0  0  0  0
    1.7360   -1.0071    0.0000 C   0  0  0  0  0  0  0  0  0  0  0  0
    2.6938   -1.3184    0.0000 N   0  0  0  0  0  0  0  0  0  0  0  0
    3.0028   -2.2695    0.0000 C   0  0  0  0  0  0  0  0  0  0  0  0
    3.9809   -2.4774    0.0000 C   0  0  0  0  0  0  0  0  0  0  0  0
    3.2858   -0.5036    0.0000 C   0  0  0  0  0  0  0  0  0  0  0  0
    4.2858   -0.5035    0.0000 C   0  0  0  0  0  0  0  0  0  0  0  0
    4.7857    0.3625    0.0000 C   0  0  0  0  0  0  0  0  0  0  0  0
    5.7857    0.3626    0.0000 N   0  0  0  0  0  0  0  0  0  0  0  0
    6.2858   -0.5034    0.0000 C   0  0  0  0  0  0  0  0  0  0  0  0
    6.2857    1.2286    0.0000 C   0  0  0  0  0  0  0  0  0  0  0  0
    5.7805    2.0976    0.0000 C   0  0  0  0  0  0  0  0  0  0  0  0
    6.2804    2.9637    0.0000 C   0  0  0  0  0  0  0  0  0  0  0  0
    7.2804    2.9697    0.0000 C   0  0  0  0  0  0  0  0  0  0  0  0
    7.7856    2.1006    0.0000 C   0  0  0  0  0  0  0  0  0  0  0  0
    7.2908    1.2257    0.0000 C   0  0  0  0  0  0  0  0  0  0  0  0
    2.6938    0.3110    0.0000 N   0  3  0  0  0  0  0  0  0  0  0  0
    3.0028    1.2620    0.0000 C   0  0  0  0  0  0  0  0  0  0  0  0
    2.3337    2.0052    0.0000 C   0  0  0  0  0  0  0  0  0  0  0  0
    1.7360   -0.0000    0.0000 C   0  0  0  0  0  0  0  0  0  0  0  0
    0.8680    0.5079    0.0000 C   0  0  0  0  0  0  0  0  0  0  0  0
  1  2  1  0  0  0  0
  2  3  1  0  0  0  0
  3  4  1  0  0  0  0
  4  5  2  0  0  0  0
  4  6  1  0  0  0  0
  6 28  1  0  0  0  0
  6  7  2  0  0  0  0
  7  8  1  0  0  0  0
  8  9  2  0  0  0  0
  9 27  1  0  0  0  0
  9 10  1  0  0  0  0
 10 11  1  0  0  0  0
 11 12  1  0  0  0  0
 10 13  1  0  0  0  0
 13 14  1  0  0  0  0
 14 15  2  0  0  0  0
 15 16  1  0  0  0  0
 16 17  1  0  0  0  0
 16 18  1  0  0  0  0
 18 23  1  0  0  0  0
 18 19  2  0  0  0  0
 19 20  1  0  0  0  0
 20 21  2  0  0  0  0
 21 22  1  0  0  0  0
 22 23  2  0  0  0  0
 13 24  2  0  0  0  0
 24 25  1  0  0  0  0
 25 26  1  0  0  0  0
 24 27  1  0  0  0  0
 27 28  2  0  0  0  0
M  CHG  1  24   1
M  END
> <JC_XSMILES>
CCOC(=O)C1=CC=C2N(CC)C(\C=C\N(C)C3=CC=CC=C3)=[N+](CC)C2=C1

> <GNF-Pf identifier>
GNF-Pf-3224

> <PF proliferation inhibition 3D7 EC50 uM>
0.2724

> <W2 Pf proliferation inhibition EC50 uM >
0.588

> <Huh7 cytotox for Pf inhibitiors CC50 uM>
34.39

> <Powder data?>
Yes

> <IFI value>
0.074074074

> <Salt>
No salt

> <Equiv of salt>
0

$$$$

  -OEChem-06281415292D

 37 40  0     0  0  0  0  0  0999 V2000
  -10.4005    2.9814    0.0000 C   0  0  0  0  0  0  0  0  0  0  0  0
   -9.5352    2.4801    0.0000 C   0  0  0  0  0  0  0  0  0  0  0  0
   -8.6654    2.9840    0.0000 C   0  0  0  0  0  0  0  0  0  0  0  0
   -7.8001    2.4828    0.0000 C   0  0  0  0  0  0  0  0  0  0  0  0
   -7.7957    1.4828    0.0000 C   0  0  0  0  0  0  0  0  0  0  0  0
   -6.9282    0.9853    0.0000 C   0  0  0  0  0  0  0  0  0  0  0  0
   -6.0636    1.4879    0.0000 N   0  0  0  0  0  0  0  0  0  0  0  0
   -5.1961    0.9905    0.0000 C   0  0  0  0  0  0  0  0  0  0  0  0
   -5.1932   -0.0095    0.0000 O   0  0  0  0  0  0  0  0  0  0  0  0
   -4.3316    1.4930    0.0000 C   0  0  0  0  0  0  0  0  0  0  0  0
   -3.4641    0.9956    0.0000 C   0  0  0  0  0  0  0  0  0  0  0  0
   -2.5995    1.4981    0.0000 C   0  0  0  0  0  0  0  0  0  0  0  0
   -1.7320    1.0007    0.0000 C   0  0  0  0  0  0  0  0  0  0  0  0
   -0.8675    1.5032    0.0000 C   0  0  0  0  0  0  0  0  0  0  0  0
   -0.0000    1.0058    0.0000 N   0  0  0  0  0  0  0  0  0  0  0  0
    0.8680    1.5138    0.0000 C   0  0  0  0  0  0  0  0  0  0  0  0
    0.8680    2.5138    0.0000 O   0  0  0  0  0  0  0  0  0  0  0  0
    1.7360    1.0058    0.0000 C   0  0  0  0  0  0  0  0  0  0  0  0
    1.7360   -0.0012    0.0000 C   0  0  0  0  0  0  0  0  0  0  0  0
    2.6938   -0.3125    0.0000 C   0  0  0  0  0  0  0  0  0  0  0  0
    3.2858    0.5023    0.0000 C   0  0  0  0  0  0  0  0  0  0  0  0
    2.6938    1.3169    0.0000 S   0  0  0  0  0  0  0  0  0  0  0  0
    0.8680   -0.4978    0.0000 N   0  0  0  0  0  0  0  0  0  0  0  0
    0.0000    0.0000    0.0000 C   0  0  0  0  0  0  0  0  0  0  0  0
   -0.8653   -0.5013    0.0000 S   0  0  0  0  0  0  0  0  0  0  0  0
   -0.8639   -1.5013    0.0000 C   0  0  0  0  0  0  0  0  0  0  0  0
   -1.7292   -2.0025    0.0000 C   0  0  0  0  0  0  0  0  0  0  0  0
   -2.5989   -1.4986    0.0000 C   0  0  0  0  0  0  0  0  0  0  0  0
   -3.4643   -1.9998    0.0000 C   0  0  0  0  0  0  0  0  0  0  0  0
   -3.4687   -2.9998    0.0000 C   0  0  0  0  0  0  0  0  0  0  0  0
   -2.5989   -3.5037    0.0000 C   0  0  0  0  0  0  0  0  0  0  0  0
   -1.7247   -3.0076    0.0000 C   0  0  0  0  0  0  0  0  0  0  0  0
   -2.6034   -4.5037    0.0000 N   0  3  0  0  0  0  0  0  0  0  0  0
   -1.7396   -5.0076    0.0000 O   0  5  0  0  0  0  0  0  0  0  0  0
   -3.4716   -4.9999    0.0000 O   0  0  0  0  0  0  0  0  0  0  0  0
   -8.6654    0.9789    0.0000 C   0  0  0  0  0  0  0  0  0  0  0  0
   -9.5396    1.4750    0.0000 C   0  0  0  0  0  0  0  0  0  0  0  0
  1  2  1  0  0  0  0
  2 37  1  0  0  0  0
  2  3  2  0  0  0  0
  3  4  1  0  0  0  0
  4  5  2  0  0  0  0
  5  6  1  0  0  0  0
  6  7  1  0  0  0  0
  7  8  1  0  0  0  0
  8  9  2  0  0  0  0
  8 10  1  0  0  0  0
 10 11  1  0  0  0  0
 11 12  1  0  0  0  0
 12 13  1  0  0  0  0
 13 14  1  0  0  0  0
 14 15  1  0  0  0  0
 15 24  1  0  0  0  0
 15 16  1  0  0  0  0
 16 17  2  0  0  0  0
 16 18  1  0  0  0  0
 18 22  1  0  0  0  0
 18 19  2  0  0  0  0
 19 20  1  0  0  0  0
 20 21  2  0  0  0  0
 21 22  1  0  0  0  0
 19 23  1  0  0  0  0
 23 24  2  0  0  0  0
 24 25  1  0  0  0  0
 25 26  1  0  0  0  0
 26 27  1  0  0  0  0
 27 32  1  0  0  0  0
 27 28  2  0  0  0  0
 28 29  1  0  0  0  0
 29 30  2  0  0  0  0
 30 31  1  0  0  0  0
 31 32  2  0  0  0  0
 31 33  1  0  0  0  0
 33 34  1  0  0  0  0
 33 35  2  0  0  0  0
  5 36  1  0  0  0  0
 36 37  2  0  0  0  0
M  CHG  2  33   1  34  -1
M  END
> <JC_XSMILES>
CC1=CC=C(CNC(=O)CCCCCN2C(=O)C3=C(C=CS3)N=C2SCC4=CC=CC(=C4)[N+]([O-])=O)C=C1

> <GNF-Pf identifier>
GNF-Pf-3291

> <PF proliferation inhibition 3D7 EC50 uM>
6.28

> <W2 Pf proliferation inhibition EC50 uM >
1.598

> <Huh7 cytotox for Pf inhibitiors CC50 uM>
>100

> <Powder data?>
Yes

> <IFI value>
0

> <Salt>
No salt

> <Equiv of salt>
0

$$$$

  -OEChem-06281415292D

 26 27  0     0  0  0  0  0  0999 V2000
   -3.5167  -10.9713    0.0000 C   0  0  0  0  0  0  0  0  0  0  0  0
   -2.6479  -10.4762    0.0000 C   0  0  0  0  0  0  0  0  0  0  0  0
   -2.6424   -9.4762    0.0000 C   0  0  0  0  0  0  0  0  0  0  0  0
   -1.7736   -8.9810    0.0000 C   0  0  0  0  0  0  0  0  0  0  0  0
   -1.7680   -7.9810    0.0000 C   0  0  0  0  0  0  0  0  0  0  0  0
   -0.8992   -7.4859    0.0000 C   0  0  0  0  0  0  0  0  0  0  0  0
   -0.0360   -7.9907    0.0000 O   0  0  0  0  0  0  0  0  0  0  0  0
   -0.8936   -6.4859    0.0000 N   0  0  0  0  0  0  0  0  0  0  0  0
   -0.0248   -5.9907    0.0000 C   0  0  0  0  0  0  0  0  0  0  0  0
   -0.0192   -4.9907    0.0000 C   0  0  0  0  0  0  0  0  0  0  0  0
    0.8496   -4.4956    0.0000 C   0  0  0  0  0  0  0  0  0  0  0  0
    0.8551   -3.4956    0.0000 C   0  0  0  0  0  0  0  0  0  0  0  0
    1.7239   -3.0004    0.0000 C   0  0  0  0  0  0  0  0  0  0  0  0
    1.7295   -2.0004    0.0000 C   0  0  0  0  0  0  0  0  0  0  0  0
    2.5983   -1.5053    0.0000 N   0  0  0  0  0  0  0  0  0  0  0  0
    2.6039   -0.5053    0.0000 C   0  0  0  0  0  0  0  0  0  0  0  0
    3.4805   -0.0073    0.0000 C   0  0  0  0  0  0  0  0  0  0  0  0
    3.4848    1.0014    0.0000 C   0  0  0  0  0  0  0  0  0  0  0  0
    2.6125    1.5125    0.0000 N   0  0  0  0  0  0  0  0  0  0  0  0
    1.7414    1.0089    0.0000 C   0  0  0  0  0  0  0  0  0  0  0  0
    0.8707    1.5185    0.0000 C   0  0  0  0  0  0  0  0  0  0  0  0
    0.0000    1.0089    0.0000 C   0  0  0  0  0  0  0  0  0  0  0  0
   -0.8675    1.5063    0.0000 Cl  0  0  0  0  0  0  0  0  0  0  0  0
    0.0000    0.0000    0.0000 C   0  0  0  0  0  0  0  0  0  0  0  0
    0.8707   -0.4993    0.0000 C   0  0  0  0  0  0  0  0  0  0  0  0
    1.7371    0.0000    0.0000 C   0  0  0  0  0  0  0  0  0  0  0  0
  1  2  1  0  0  0  0
  2  3  1  0  0  0  0
  3  4  1  0  0  0  0
  4  5  1  0  0  0  0
  5  6  1  0  0  0  0
  6  7  2  0  0  0  0
  6  8  1  0  0  0  0
  8  9  1  0  0  0  0
  9 10  1  0  0  0  0
 10 11  1  0  0  0  0
 11 12  1  0  0  0  0
 12 13  1  0  0  0  0
 13 14  1  0  0  0  0
 14 15  1  0  0  0  0
 15 16  1  0  0  0  0
 16 26  1  0  0  0  0
 16 17  2  0  0  0  0
 17 18  1  0  0  0  0
 18 19  2  0  0  0  0
 19 20  1  0  0  0  0
 20 26  1  0  0  0  0
 20 21  2  0  0  0  0
 21 22  1  0  0  0  0
 22 23  1  0  0  0  0
 22 24  2  0  0  0  0
 24 25  1  0  0  0  0
 25 26  2  0  0  0  0
M  END
> <JC_XSMILES>
CCCCCC(=O)NCCCCCCNC1=CC=NC2=CC(Cl)=CC=C12

> <GNF-Pf identifier>
GNF-Pf-3292

> <PF proliferation inhibition 3D7 EC50 uM>
0.2535

> <W2 Pf proliferation inhibition EC50 uM >
0.2216

> <Huh7 cytotox for Pf inhibitiors CC50 uM>
>13.88

> <Powder data?>
No

> <IFI value>
0

> <Salt>
No salt

> <Equiv of salt>
0

$$$$

  -OEChem-06281415292D

 34 38  0     0  0  0  0  0  0999 V2000
   -0.8675    0.4975    0.0000 C   0  0  0  0  0  0  0  0  0  0  0  0
    0.0000    0.0000    0.0000 C   0  0  0  0  0  0  0  0  0  0  0  0
   -0.0000   -1.0058    0.0000 C   0  0  0  0  0  0  0  0  0  0  0  0
    0.8680   -1.5037    0.0000 C   0  0  0  0  0  0  0  0  0  0  0  0
    1.7360   -1.0071    0.0000 C   0  0  0  0  0  0  0  0  0  0  0  0
    2.6938   -1.3184    0.0000 N   0  0  0  0  0  0  0  0  0  0  0  0
    3.2858   -0.5036    0.0000 C   0  0  0  0  0  0  0  0  0  0  0  0
    2.6938    0.3110    0.0000 N   0  0  0  0  0  0  0  0  0  0  0  0
    1.7360   -0.0000    0.0000 C   0  0  0  0  0  0  0  0  0  0  0  0
    0.8680    0.5079    0.0000 C   0  0  0  0  0  0  0  0  0  0  0  0
    4.2858   -0.5035    0.0000 C   0  0  0  0  0  0  0  0  0  0  0  0
    4.7859   -1.3695    0.0000 C   0  0  0  0  0  0  0  0  0  0  0  0
    5.7859   -1.3695    0.0000 C   0  0  0  0  0  0  0  0  0  0  0  0
    6.3755   -0.5600    0.0000 C   0  0  0  0  0  0  0  0  0  0  0  0
    7.3285   -0.8685    0.0000 N   0  0  0  0  0  0  0  0  0  0  0  0
    8.1375   -0.2806    0.0000 C   0  0  0  0  0  0  0  0  0  0  0  0
    9.0511   -0.6871    0.0000 C   0  0  0  0  0  0  0  0  0  0  0  0
    9.8609   -0.1004    0.0000 C   0  0  0  0  0  0  0  0  0  0  0  0
   10.7763   -0.5030    0.0000 C   0  0  0  0  0  0  0  0  0  0  0  0
   10.8829   -1.5025    0.0000 C   0  0  0  0  0  0  0  0  0  0  0  0
   11.7983   -1.9051    0.0000 Cl  0  0  0  0  0  0  0  0  0  0  0  0
   10.0742   -2.0994    0.0000 C   0  0  0  0  0  0  0  0  0  0  0  0
    9.1577   -1.6867    0.0000 C   0  0  0  0  0  0  0  0  0  0  0  0
    8.3479   -2.2734    0.0000 Cl  0  0  0  0  0  0  0  0  0  0  0  0
    7.3277   -1.8731    0.0000 N   0  0  0  0  0  0  0  0  0  0  0  0
    6.3748   -2.1777    0.0000 C   0  0  0  0  0  0  0  0  0  0  0  0
    6.0641   -3.1282    0.0000 C   0  0  0  0  0  0  0  0  0  0  0  0
    5.0799   -3.3326    0.0000 C   0  0  0  0  0  0  0  0  0  0  0  0
    4.7692   -4.2832    0.0000 C   0  0  0  0  0  0  0  0  0  0  0  0
    5.4328   -5.0314    0.0000 C   0  0  0  0  0  0  0  0  0  0  0  0
    6.4170   -4.8270    0.0000 C   0  0  0  0  0  0  0  0  0  0  0  0
    6.7376   -3.8744    0.0000 C   0  0  0  0  0  0  0  0  0  0  0  0
    4.7857    0.3625    0.0000 C   0  0  0  0  0  0  0  0  0  0  0  0
    5.2857    1.2286    0.0000 N   0  0  0  0  0  0  0  0  0  0  0  0
  1  2  1  0  0  0  0
  2 10  1  0  0  0  0
  2  3  2  0  0  0  0
  3  4  1  0  0  0  0
  4  5  2  0  0  0  0
  5  9  1  0  0  0  0
  5  6  1  0  0  0  0
  6  7  1  0  0  0  0
  7  8  2  0  0  0  0
  8  9  1  0  0  0  0
  9 10  2  0  0  0  0
  7 11  1  0  0  0  0
 11 12  2  3  0  0  0
 12 13  1  0  0  0  0
 13 26  1  0  0  0  0
 13 14  2  0  0  0  0
 14 15  1  0  0  0  0
 15 16  1  0  0  0  0
 16 17  1  0  0  0  0
 17 23  1  0  0  0  0
 17 18  2  0  0  0  0
 18 19  1  0  0  0  0
 19 20  2  0  0  0  0
 20 21  1  0  0  0  0
 20 22  1  0  0  0  0
 22 23  2  0  0  0  0
 23 24  1  0  0  0  0
 15 25  1  0  0  0  0
 25 26  2  0  0  0  0
 26 27  1  0  0  0  0
 27 32  1  0  0  0  0
 27 28  2  0  0  0  0
 28 29  1  0  0  0  0
 29 30  2  0  0  0  0
 30 31  1  0  0  0  0
 31 32  2  0  0  0  0
 11 33  1  0  0  0  0
 33 34  3  0  0  0  0
M  END
> <JC_XSMILES>
CC1=CC=C2NC(=NC2=C1)C(=CC3=CN(CC4=CC=C(Cl)C=C4Cl)N=C3C5=CC=CC=C5)C#N

> <GNF-Pf identifier>
GNF-Pf-3295

> <PF proliferation inhibition 3D7 EC50 uM>
1.815

> <W2 Pf proliferation inhibition EC50 uM >
1.594

> <Huh7 cytotox for Pf inhibitiors CC50 uM>
>100

> <Powder data?>
Yes

> <IFI value>
N/A

> <Salt>
No salt

> <Equiv of salt>
0

$$$$

  -OEChem-06281415292D

 20 22  0     1  0  0  0  0  0999 V2000
    2.5995    1.4976    0.0000 C   0  0  0  0  0  0  0  0  0  0  0  0
    1.7350    2.0001    0.0000 O   0  0  0  0  0  0  0  0  0  0  0  0
    0.8675    1.5027    0.0000 C   0  0  0  0  0  0  0  0  0  0  0  0
    0.8675    0.4975    0.0000 C   0  0  0  0  0  0  0  0  0  0  0  0
    0.0000    0.0000    0.0000 C   0  0  0  0  0  0  0  0  0  0  0  0
   -0.8675    0.4975    0.0000 C   0  0  0  0  0  0  0  0  0  0  0  0
   -0.8675    1.5027    0.0000 C   0  0  0  0  0  0  0  0  0  0  0  0
    0.0000    2.0104    0.0000 C   0  0  0  0  0  0  0  0  0  0  0  0
   -1.7328   -0.0038    0.0000 C   0  0  0  0  0  0  0  0  0  0  0  0
   -2.5995    0.4950    0.0000 O   0  0  0  0  0  0  0  0  0  0  0  0
   -1.7313   -1.0038    0.0000 C   0  0  3  0  0  0  0  0  0  0  0  0
   -2.2301   -1.8727    0.0000 C   0  0  0  0  0  0  0  0  0  0  0  0
   -1.2301   -1.8712    0.0000 C   0  0  3  0  0  0  0  0  0  0  0  0
   -0.3636   -2.3704    0.0000 C   0  0  0  0  0  0  0  0  0  0  0  0
    0.5050   -1.8645    0.0000 C   0  0  0  0  0  0  0  0  0  0  0  0
    1.3715   -2.3637    0.0000 C   0  0  0  0  0  0  0  0  0  0  0  0
    1.3783   -3.3637    0.0000 C   0  0  0  0  0  0  0  0  0  0  0  0
    2.2469   -3.8591    0.0000 Cl  0  0  0  0  0  0  0  0  0  0  0  0
    0.5097   -3.8696    0.0000 C   0  0  0  0  0  0  0  0  0  0  0  0
   -0.3657   -3.3756    0.0000 C   0  0  0  0  0  0  0  0  0  0  0  0
  1  2  1  0  0  0  0
  2  3  1  0  0  0  0
  3  8  1  0  0  0  0
  3  4  2  0  0  0  0
  4  5  1  0  0  0  0
  5  6  2  0  0  0  0
  6  7  1  0  0  0  0
  7  8  2  0  0  0  0
  6  9  1  0  0  0  0
  9 10  2  0  0  0  0
  9 11  1  0  0  0  0
 11 13  1  0  0  0  0
 11 12  1  0  0  0  0
 12 13  1  0  0  0  0
 13 14  1  0  0  0  0
 14 20  1  0  0  0  0
 14 15  2  0  0  0  0
 15 16  1  0  0  0  0
 16 17  2  0  0  0  0
 17 18  1  0  0  0  0
 17 19  1  0  0  0  0
 19 20  2  0  0  0  0
M  END
> <JC_XSMILES>
COC1=CC=C(C=C1)C(=O)C2CC2C3=CC=C(Cl)C=C3

> <GNF-Pf identifier>
GNF-Pf-3417

> <PF proliferation inhibition 3D7 EC50 uM>
0.2171

> <W2 Pf proliferation inhibition EC50 uM >
1.425

> <Huh7 cytotox for Pf inhibitiors CC50 uM>
>100

> <Powder data?>
Yes

> <IFI value>
0.037974684

> <Salt>
No salt

> <Equiv of salt>
0

$$$$

  -OEChem-06281415292D

 27 30  0     0  0  0  0  0  0999 V2000
   -5.3404    0.0068    0.0000 C   0  0  0  0  0  0  0  0  0  0  0  0
   -4.7536   -0.8029    0.0000 O   0  0  0  0  0  0  0  0  0  0  0  0
   -3.7590   -0.6996    0.0000 C   0  0  0  0  0  0  0  0  0  0  0  0
   -3.3511    0.2134    0.0000 O   0  0  0  0  0  0  0  0  0  0  0  0
   -3.1722   -1.5094    0.0000 C   0  0  0  0  0  0  0  0  0  0  0  0
   -2.1721   -1.5106    0.0000 C   0  0  0  0  0  0  0  0  0  0  0  0
   -1.5832   -0.7024    0.0000 N   0  0  0  0  0  0  0  0  0  0  0  0
   -0.5889   -0.8082    0.0000 C   0  0  0  0  0  0  0  0  0  0  0  0
   -0.1833   -1.7223    0.0000 O   0  0  0  0  0  0  0  0  0  0  0  0
    0.0000    0.0000    0.0000 C   0  0  0  0  0  0  0  0  0  0  0  0
   -0.3065    0.9519    0.0000 C   0  0  0  0  0  0  0  0  0  0  0  0
   -1.2577    1.2605    0.0000 C   0  0  0  0  0  0  0  0  0  0  0  0
    0.5008    1.5428    0.0000 O   0  0  0  0  0  0  0  0  0  0  0  0
    1.3133    0.9519    0.0000 N   0  0  0  0  0  0  0  0  0  0  0  0
    1.0015    0.0000    0.0000 C   0  0  0  0  0  0  0  0  0  0  0  0
    1.5883   -0.8097    0.0000 C   0  0  0  0  0  0  0  0  0  0  0  0
    2.5878   -0.7029    0.0000 C   0  0  0  0  0  0  0  0  0  0  0  0
    3.1747   -1.5126    0.0000 C   0  0  0  0  0  0  0  0  0  0  0  0
    2.7722   -2.4281    0.0000 C   0  0  0  0  0  0  0  0  0  0  0  0
    1.7727   -2.5349    0.0000 C   0  0  0  0  0  0  0  0  0  0  0  0
    1.1757   -1.7263    0.0000 C   0  0  0  0  0  0  0  0  0  0  0  0
   -1.8644   -2.4621    0.0000 S   0  0  0  0  0  0  0  0  0  0  0  0
   -2.6743   -3.0494    0.0000 C   0  0  0  0  0  0  0  0  0  0  0  0
   -3.4824   -2.4602    0.0000 C   0  0  0  0  0  0  0  0  0  0  0  0
   -4.2925   -3.0466    0.0000 C   0  0  0  0  0  0  0  0  0  0  0  0
   -3.9851   -3.9983    0.0000 C   0  0  0  0  0  0  0  0  0  0  0  0
   -2.9850   -4.0001    0.0000 C   0  0  0  0  0  0  0  0  0  0  0  0
  1  2  1  0  0  0  0
  2  3  1  0  0  0  0
  3  4  2  0  0  0  0
  3  5  1  0  0  0  0
  5 24  1  0  0  0  0
  5  6  2  0  0  0  0
  6  7  1  0  0  0  0
  7  8  1  0  0  0  0
  8  9  2  0  0  0  0
  8 10  1  0  0  0  0
 10 15  1  0  0  0  0
 10 11  2  0  0  0  0
 11 12  1  0  0  0  0
 11 13  1  0  0  0  0
 13 14  1  0  0  0  0
 14 15  2  0  0  0  0
 15 16  1  0  0  0  0
 16 21  1  0  0  0  0
 16 17  2  0  0  0  0
 17 18  1  0  0  0  0
 18 19  2  0  0  0  0
 19 20  1  0  0  0  0
 20 21  2  0  0  0  0
  6 22  1  0  0  0  0
 22 23  1  0  0  0  0
 23 27  1  0  0  0  0
 23 24  2  0  0  0  0
 24 25  1  0  0  0  0
 25 26  1  0  0  0  0
 26 27  1  0  0  0  0
M  END
> <JC_XSMILES>
COC(=O)C1=C(NC(=O)C2=C(C)ON=C2C3=CC=CC=C3)SC4=C1CCC4

> <GNF-Pf identifier>
GNF-Pf-3480

> <PF proliferation inhibition 3D7 EC50 uM>
2.977

> <W2 Pf proliferation inhibition EC50 uM >
1.33

> <Huh7 cytotox for Pf inhibitiors CC50 uM>
>100

> <Powder data?>
Yes

> <IFI value>
0.014492754

> <Salt>
No salt

> <Equiv of salt>
0

$$$$

  -OEChem-06281415292D

 32 35  0     1  0  0  0  0  0999 V2000
    2.6916    6.7456    0.0000 C   0  0  0  0  0  0  0  0  0  0  0  0
    2.4665    5.7713    0.0000 C   0  0  0  0  0  0  0  0  0  0  0  0
    3.4408    5.5462    0.0000 C   0  0  0  0  0  0  0  0  0  0  0  0
    1.4922    5.9964    0.0000 C   0  0  0  0  0  0  0  0  0  0  0  0
    2.2414    4.7970    0.0000 C   0  0  0  0  0  0  0  0  0  0  0  0
    2.9785    4.1135    0.0000 C   0  0  0  0  0  0  0  0  0  0  0  0
    2.7534    3.1391    0.0000 C   0  0  0  0  0  0  0  0  0  0  0  0
    1.7987    2.8413    0.0000 C   0  0  0  0  0  0  0  0  0  0  0  0
    1.0617    3.5248    0.0000 C   0  0  0  0  0  0  0  0  0  0  0  0
    1.2793    4.5061    0.0000 C   0  0  0  0  0  0  0  0  0  0  0  0
    1.4123    1.1345    0.0000 C   0  0  3  0  0  0  0  0  0  0  0  0
    0.4318    0.9084    0.0000 N   0  0  0  0  0  0  0  0  0  0  0  0
    0.0000    0.0000    0.0000 C   0  0  0  0  0  0  0  0  0  0  0  0
    0.4340   -0.9043    0.0000 C   0  0  0  0  0  0  0  0  0  0  0  0
    1.4131   -1.1217    0.0000 C   0  0  0  0  0  0  0  0  0  0  0  0
    2.1989   -0.4923    0.0000 N   0  0  0  0  0  0  0  0  0  0  0  0
    3.1500   -0.8066    0.0000 C   0  0  0  0  0  0  0  0  0  0  0  0
    3.7428    0.0008    0.0000 C   0  0  0  0  0  0  0  0  0  0  0  0
    3.1582    0.8139    0.0000 C   0  0  0  0  0  0  0  0  0  0  0  0
    2.2003    0.5077    0.0000 C   0  0  0  0  0  0  0  0  0  0  0  0
   -0.1945    1.6879    0.0000 C   0  0  0  0  0  0  0  0  0  0  0  0
    0.1674    2.6202    0.0000 O   0  0  0  0  0  0  0  0  0  0  0  0
   -1.1828    1.5353    0.0000 C   0  0  0  0  0  0  0  0  0  0  0  0
   -1.5439    0.5972    0.0000 C   0  0  0  0  0  0  0  0  0  0  0  0
   -2.5322    0.4445    0.0000 C   0  0  0  0  0  0  0  0  0  0  0  0
   -3.1631    1.2204    0.0000 C   0  0  0  0  0  0  0  0  0  0  0  0
   -2.8020    2.1585    0.0000 C   0  0  0  0  0  0  0  0  0  0  0  0
   -1.8101    2.3207    0.0000 C   0  0  0  0  0  0  0  0  0  0  0  0
   -4.1507    1.0634    0.0000 C   0  0  0  0  0  0  0  0  0  0  0  0
   -3.9937    0.0758    0.0000 C   0  0  0  0  0  0  0  0  0  0  0  0
   -4.3077    2.0510    0.0000 C   0  0  0  0  0  0  0  0  0  0  0  0
   -5.1383    0.9064    0.0000 C   0  0  0  0  0  0  0  0  0  0  0  0
  1  2  1  0  0  0  0
  2  3  1  0  0  0  0
  2  4  1  0  0  0  0
  2  5  1  0  0  0  0
  5 10  1  0  0  0  0
  5  6  2  0  0  0  0
  6  7  1  0  0  0  0
  7  8  2  0  0  0  0
  8  9  1  0  0  0  0
  9 10  2  0  0  0  0
  8 11  1  0  0  0  0
 11 20  1  0  0  0  0
 11 12  1  0  0  0  0
 12 13  1  0  0  0  0
 13 14  1  0  0  0  0
 14 15  1  0  0  0  0
 15 16  1  0  0  0  0
 16 20  1  0  0  0  0
 16 17  1  0  0  0  0
 17 18  2  0  0  0  0
 18 19  1  0  0  0  0
 19 20  2  0  0  0  0
 12 21  1  0  0  0  0
 21 22  2  0  0  0  0
 21 23  1  0  0  0  0
 23 28  1  0  0  0  0
 23 24  2  0  0  0  0
 24 25  1  0  0  0  0
 25 26  2  0  0  0  0
 26 27  1  0  0  0  0
 27 28  2  0  0  0  0
 26 29  1  0  0  0  0
 29 30  1  0  0  0  0
 29 31  1  0  0  0  0
 29 32  1  0  0  0  0
M  END
> <JC_XSMILES>
CC(C)(C)C1=CC=C(C=C1)C2N(CCCN3C=CC=C23)C(=O)C4=CC=C(C=C4)C(C)(C)C

> <GNF-Pf identifier>
GNF-Pf-3519

> <PF proliferation inhibition 3D7 EC50 uM>
1.564

> <W2 Pf proliferation inhibition EC50 uM >
1.29

> <Huh7 cytotox for Pf inhibitiors CC50 uM>
>100

> <Powder data?>
Yes

> <IFI value>
0.04587156

> <Salt>
No salt

> <Equiv of salt>
0

$$$$

  -OEChem-06281415292D

 24 27  0     0  0  0  0  0  0999 V2000
   -4.3412   -0.5165    0.0000 O   0  5  0  0  0  0  0  0  0  0  0  0
   -4.3338   -1.5165    0.0000 N   0  3  0  0  0  0  0  0  0  0  0  0
   -5.1961   -2.0229    0.0000 O   0  0  0  0  0  0  0  0  0  0  0  0
   -3.4641   -2.0101    0.0000 C   0  0  0  0  0  0  0  0  0  0  0  0
   -3.4597   -3.0153    0.0000 C   0  0  0  0  0  0  0  0  0  0  0  0
   -2.5900   -3.5090    0.0000 C   0  0  0  0  0  0  0  0  0  0  0  0
   -1.7247   -3.0077    0.0000 C   0  0  0  0  0  0  0  0  0  0  0  0
   -1.7292   -2.0025    0.0000 C   0  0  0  0  0  0  0  0  0  0  0  0
   -0.8639   -1.5013    0.0000 C   0  0  0  0  0  0  0  0  0  0  0  0
   -0.8653   -0.5013    0.0000 S   0  0  0  0  0  0  0  0  0  0  0  0
    0.0000    0.0000    0.0000 C   0  0  0  0  0  0  0  0  0  0  0  0
    0.8680   -0.4978    0.0000 N   0  0  0  0  0  0  0  0  0  0  0  0
    1.7360   -0.0012    0.0000 C   0  0  0  0  0  0  0  0  0  0  0  0
    1.7360    1.0058    0.0000 C   0  0  0  0  0  0  0  0  0  0  0  0
    2.6938    1.3169    0.0000 S   0  0  0  0  0  0  0  0  0  0  0  0
    3.2858    0.5023    0.0000 C   0  0  0  0  0  0  0  0  0  0  0  0
    2.6938   -0.3125    0.0000 C   0  0  0  0  0  0  0  0  0  0  0  0
    0.8680    1.5138    0.0000 C   0  0  0  0  0  0  0  0  0  0  0  0
    0.8680    2.5138    0.0000 O   0  0  0  0  0  0  0  0  0  0  0  0
    0.0000    1.0058    0.0000 N   0  0  0  0  0  0  0  0  0  0  0  0
   -0.8675    1.5032    0.0000 C   0  0  0  0  0  0  0  0  0  0  0  0
   -1.3719    2.3689    0.0000 C   0  0  0  0  0  0  0  0  0  0  0  0
   -1.8694    1.5014    0.0000 C   0  0  0  0  0  0  0  0  0  0  0  0
   -2.5989   -1.4986    0.0000 C   0  0  0  0  0  0  0  0  0  0  0  0
  1  2  1  0  0  0  0
  2  3  2  0  0  0  0
  2  4  1  0  0  0  0
  4 24  1  0  0  0  0
  4  5  2  0  0  0  0
  5  6  1  0  0  0  0
  6  7  2  0  0  0  0
  7  8  1  0  0  0  0
  8  9  1  0  0  0  0
  9 10  1  0  0  0  0
 10 11  1  0  0  0  0
 11 20  1  0  0  0  0
 11 12  2  0  0  0  0
 12 13  1  0  0  0  0
 13 17  1  0  0  0  0
 13 14  2  0  0  0  0
 14 15  1  0  0  0  0
 15 16  1  0  0  0  0
 16 17  2  0  0  0  0
 14 18  1  0  0  0  0
 18 19  2  0  0  0  0
 18 20  1  0  0  0  0
 20 21  1  0  0  0  0
 21 23  1  0  0  0  0
 21 22  1  0  0  0  0
 22 23  1  0  0  0  0
  8 24  2  0  0  0  0
M  CHG  2   1  -1   2   1
M  END
> <JC_XSMILES>
[O-][N+](=O)C1=CC=CC(CSC2=NC3=C(SC=C3)C(=O)N2C4CC4)=C1

> <GNF-Pf identifier>
GNF-Pf-352

> <PF proliferation inhibition 3D7 EC50 uM>
1.25

> <W2 Pf proliferation inhibition EC50 uM >
>1.522

> <Huh7 cytotox for Pf inhibitiors CC50 uM>
>10

> <Powder data?>
No

> <IFI value>
0

> <Salt>
No salt

> <Equiv of salt>
0

$$$$

  -OEChem-06281415292D

 22 23  0     0  0  0  0  0  0999 V2000
    1.7334    3.0126    0.0000 C   0  0  0  0  0  0  0  0  0  0  0  0
    0.8674    2.5126    0.0000 C   0  0  0  0  0  0  0  0  0  0  0  0
    0.8674    1.5126    0.0000 N   0  0  0  0  0  0  0  0  0  0  0  0
    0.0000    1.0051    0.0000 C   0  0  0  0  0  0  0  0  0  0  0  0
    0.0000    0.0000    0.0000 C   0  0  0  0  0  0  0  0  0  0  0  0
    0.8674   -0.4976    0.0000 N   0  0  0  0  0  0  0  0  0  0  0  0
    1.7348    0.0000    0.0000 C   0  0  0  0  0  0  0  0  0  0  0  0
    1.7348    1.0051    0.0000 C   0  0  0  0  0  0  0  0  0  0  0  0
    0.8674   -1.4976    0.0000 C   0  0  0  0  0  0  0  0  0  0  0  0
   -0.0001   -2.0053    0.0000 C   0  0  0  0  0  0  0  0  0  0  0  0
   -0.8676   -1.5079    0.0000 Cl  0  0  0  0  0  0  0  0  0  0  0  0
   -0.0001   -3.0105    0.0000 C   0  0  0  0  0  0  0  0  0  0  0  0
    0.8674   -3.5080    0.0000 C   0  0  0  0  0  0  0  0  0  0  0  0
    1.7349   -3.0105    0.0000 C   0  0  0  0  0  0  0  0  0  0  0  0
    1.7349   -2.0053    0.0000 C   0  0  0  0  0  0  0  0  0  0  0  0
    2.6024   -1.5079    0.0000 N   0  0  0  0  0  0  0  0  0  0  0  0
    3.4669   -2.0104    0.0000 C   0  0  0  0  0  0  0  0  0  0  0  0
    3.4640   -3.0104    0.0000 O   0  0  0  0  0  0  0  0  0  0  0  0
    4.3344   -1.5130    0.0000 C   0  0  0  0  0  0  0  0  0  0  0  0
    4.8319   -2.3805    0.0000 Cl  0  0  0  0  0  0  0  0  0  0  0  0
    3.8370   -0.6455    0.0000 Cl  0  0  0  0  0  0  0  0  0  0  0  0
    5.2019   -1.0155    0.0000 Cl  0  0  0  0  0  0  0  0  0  0  0  0
  1  2  1  0  0  0  0
  2  3  1  0  0  0  0
  3  8  1  0  0  0  0
  3  4  1  0  0  0  0
  4  5  1  0  0  0  0
  5  6  1  0  0  0  0
  6  7  1  0  0  0  0
  7  8  1  0  0  0  0
  6  9  1  0  0  0  0
  9 15  1  0  0  0  0
  9 10  2  0  0  0  0
 10 11  1  0  0  0  0
 10 12  1  0  0  0  0
 12 13  2  0  0  0  0
 13 14  1  0  0  0  0
 14 15  2  0  0  0  0
 15 16  1  0  0  0  0
 16 17  1  0  0  0  0
 17 18  2  0  0  0  0
 17 19  1  0  0  0  0
 19 20  1  0  0  0  0
 19 21  1  0  0  0  0
 19 22  1  0  0  0  0
M  END
> <JC_XSMILES>
CCN1CCN(CC1)C2=C(Cl)C=CC=C2NC(=O)C(Cl)(Cl)Cl

> <GNF-Pf identifier>
GNF-Pf-3608

> <PF proliferation inhibition 3D7 EC50 uM>
1.667

> <W2 Pf proliferation inhibition EC50 uM >
1.185

> <Huh7 cytotox for Pf inhibitiors CC50 uM>
>100

> <Powder data?>
Yes

> <IFI value>
0

> <Salt>
No salt

> <Equiv of salt>
0

$$$$

  -OEChem-06281415292D

 35 39  0     0  0  0  0  0  0999 V2000
   11.7998    0.3345    0.0000 Cl  0  0  0  0  0  0  0  0  0  0  0  0
   10.7998    0.3433    0.0000 C   0  0  0  0  0  0  0  0  0  0  0  0
   10.2922   -0.5243    0.0000 C   0  0  0  0  0  0  0  0  0  0  0  0
    9.2922   -0.5156    0.0000 C   0  0  0  0  0  0  0  0  0  0  0  0
    8.7947    0.3519    0.0000 C   0  0  0  0  0  0  0  0  0  0  0  0
    9.3023    1.2195    0.0000 C   0  0  0  0  0  0  0  0  0  0  0  0
   10.3075    1.2196    0.0000 C   0  0  0  0  0  0  0  0  0  0  0  0
    7.7947    0.3562    0.0000 C   0  0  0  0  0  0  0  0  0  0  0  0
    7.2985    1.2244    0.0000 O   0  0  0  0  0  0  0  0  0  0  0  0
    7.2909   -0.5076    0.0000 N   0  0  0  0  0  0  0  0  0  0  0  0
    6.2910   -0.5033    0.0000 C   0  0  0  0  0  0  0  0  0  0  0  0
    5.7871   -1.3731    0.0000 C   0  0  0  0  0  0  0  0  0  0  0  0
    4.7871   -1.3688    0.0000 C   0  0  0  0  0  0  0  0  0  0  0  0
    4.2858   -0.5035    0.0000 C   0  0  0  0  0  0  0  0  0  0  0  0
    4.7896    0.3663    0.0000 C   0  0  0  0  0  0  0  0  0  0  0  0
    5.7947    0.3708    0.0000 C   0  0  0  0  0  0  0  0  0  0  0  0
    3.2858   -0.5036    0.0000 C   0  0  0  0  0  0  0  0  0  0  0  0
    2.6938    0.3110    0.0000 N   0  0  0  0  0  0  0  0  0  0  0  0
    1.7360   -0.0000    0.0000 C   0  0  0  0  0  0  0  0  0  0  0  0
    0.8680    0.5079    0.0000 C   0  0  0  0  0  0  0  0  0  0  0  0
    0.0000    0.0000    0.0000 C   0  0  0  0  0  0  0  0  0  0  0  0
   -0.8675    0.4975    0.0000 N   0  0  0  0  0  0  0  0  0  0  0  0
   -1.7320   -0.0050    0.0000 C   0  0  0  0  0  0  0  0  0  0  0  0
   -1.7291   -1.0050    0.0000 O   0  0  0  0  0  0  0  0  0  0  0  0
   -2.5995    0.4924    0.0000 C   0  0  0  0  0  0  0  0  0  0  0  0
   -3.4671   -0.0153    0.0000 C   0  0  0  0  0  0  0  0  0  0  0  0
   -4.3346    0.4822    0.0000 C   0  0  0  0  0  0  0  0  0  0  0  0
   -4.3434    1.4822    0.0000 C   0  0  0  0  0  0  0  0  0  0  0  0
   -5.2130    1.9758    0.0000 Cl  0  0  0  0  0  0  0  0  0  0  0  0
   -3.4758    1.9899    0.0000 C   0  0  0  0  0  0  0  0  0  0  0  0
   -2.5995    1.4976    0.0000 C   0  0  0  0  0  0  0  0  0  0  0  0
   -0.0000   -1.0058    0.0000 C   0  0  0  0  0  0  0  0  0  0  0  0
    0.8680   -1.5037    0.0000 C   0  0  0  0  0  0  0  0  0  0  0  0
    1.7360   -1.0071    0.0000 C   0  0  0  0  0  0  0  0  0  0  0  0
    2.6938   -1.3184    0.0000 N   0  0  0  0  0  0  0  0  0  0  0  0
  1  2  1  0  0  0  0
  2  7  1  0  0  0  0
  2  3  2  0  0  0  0
  3  4  1  0  0  0  0
  4  5  2  0  0  0  0
  5  6  1  0  0  0  0
  6  7  2  0  0  0  0
  5  8  1  0  0  0  0
  8  9  2  0  0  0  0
  8 10  1  0  0  0  0
 10 11  1  0  0  0  0
 11 16  1  0  0  0  0
 11 12  2  0  0  0  0
 12 13  1  0  0  0  0
 13 14  2  0  0  0  0
 14 15  1  0  0  0  0
 15 16  2  0  0  0  0
 14 17  1  0  0  0  0
 17 35  1  0  0  0  0
 17 18  2  0  0  0  0
 18 19  1  0  0  0  0
 19 34  1  0  0  0  0
 19 20  2  0  0  0  0
 20 21  1  0  0  0  0
 21 22  1  0  0  0  0
 22 23  1  0  0  0  0
 23 24  2  0  0  0  0
 23 25  1  0  0  0  0
 25 31  1  0  0  0  0
 25 26  2  0  0  0  0
 26 27  1  0  0  0  0
 27 28  2  0  0  0  0
 28 29  1  0  0  0  0
 28 30  1  0  0  0  0
 30 31  2  0  0  0  0
 21 32  2  0  0  0  0
 32 33  1  0  0  0  0
 33 34  2  0  0  0  0
 34 35  1  0  0  0  0
M  END
> <JC_XSMILES>
ClC1=CC=C(C=C1)C(=O)NC2=CC=C(C=C2)C3=NC4=CC(NC(=O)C5=CC=C(Cl)C=C5)=CC=C4N3

> <GNF-Pf identifier>
GNF-Pf-364

> <PF proliferation inhibition 3D7 EC50 uM>
0.993

> <W2 Pf proliferation inhibition EC50 uM >
>12.5

> <Huh7 cytotox for Pf inhibitiors CC50 uM>
83.82

> <Powder data?>
Yes

> <IFI value>
0

> <Salt>
No salt

> <Equiv of salt>
0

$$$$

  -OEChem-06281415292D

 22 24  0     0  0  0  0  0  0999 V2000
   -2.6188   -4.4713    0.0000 C   0  0  0  0  0  0  0  0  0  0  0  0
   -1.7578   -4.9799    0.0000 O   0  0  0  0  0  0  0  0  0  0  0  0
   -0.8869   -4.4886    0.0000 C   0  0  0  0  0  0  0  0  0  0  0  0
   -0.8798   -3.4834    0.0000 C   0  0  0  0  0  0  0  0  0  0  0  0
   -0.0088   -2.9920    0.0000 C   0  0  0  0  0  0  0  0  0  0  0  0
    0.8551   -3.4956    0.0000 C   0  0  0  0  0  0  0  0  0  0  0  0
    0.8481   -4.5008    0.0000 C   0  0  0  0  0  0  0  0  0  0  0  0
   -0.0230   -5.0024    0.0000 C   0  0  0  0  0  0  0  0  0  0  0  0
    1.7239   -3.0004    0.0000 C   0  0  0  0  0  0  0  0  0  0  0  0
    1.7295   -2.0004    0.0000 N   0  0  0  0  0  0  0  0  0  0  0  0
    2.5983   -1.5053    0.0000 N   0  0  0  0  0  0  0  0  0  0  0  0
    2.6039   -0.5053    0.0000 C   0  0  0  0  0  0  0  0  0  0  0  0
    3.4805   -0.0073    0.0000 C   0  0  0  0  0  0  0  0  0  0  0  0
    3.4848    1.0014    0.0000 C   0  0  0  0  0  0  0  0  0  0  0  0
    4.3535    1.4968    0.0000 C   0  0  0  0  0  0  0  0  0  0  0  0
    2.6125    1.5125    0.0000 N   0  0  0  0  0  0  0  0  0  0  0  0
    1.7414    1.0089    0.0000 C   0  0  0  0  0  0  0  0  0  0  0  0
    0.8707    1.5185    0.0000 C   0  0  0  0  0  0  0  0  0  0  0  0
    0.0000    1.0089    0.0000 C   0  0  0  0  0  0  0  0  0  0  0  0
    0.0000    0.0000    0.0000 C   0  0  0  0  0  0  0  0  0  0  0  0
    0.8707   -0.4993    0.0000 C   0  0  0  0  0  0  0  0  0  0  0  0
    1.7371    0.0000    0.0000 C   0  0  0  0  0  0  0  0  0  0  0  0
  1  2  1  0  0  0  0
  2  3  1  0  0  0  0
  3  8  1  0  0  0  0
  3  4  2  0  0  0  0
  4  5  1  0  0  0  0
  5  6  2  0  0  0  0
  6  7  1  0  0  0  0
  7  8  2  0  0  0  0
  6  9  1  0  0  0  0
  9 10  2  3  0  0  0
 10 11  1  0  0  0  0
 11 12  1  0  0  0  0
 12 22  1  0  0  0  0
 12 13  2  0  0  0  0
 13 14  1  0  0  0  0
 14 15  1  0  0  0  0
 14 16  2  0  0  0  0
 16 17  1  0  0  0  0
 17 22  1  0  0  0  0
 17 18  2  0  0  0  0
 18 19  1  0  0  0  0
 19 20  2  0  0  0  0
 20 21  1  0  0  0  0
 21 22  2  0  0  0  0
M  END
> <JC_XSMILES>
COC1=CC=C(C=C1)C=NNC2=CC(C)=NC3=CC=CC=C23

> <GNF-Pf identifier>
GNF-Pf-3679

> <PF proliferation inhibition 3D7 EC50 uM>
0.2276

> <W2 Pf proliferation inhibition EC50 uM >
0.2074

> <Huh7 cytotox for Pf inhibitiors CC50 uM>
18.86

> <Powder data?>
Yes

> <IFI value>
0.153846154

> <Salt>
No salt

> <Equiv of salt>
0

$$$$

  -OEChem-06281415292D

 26 29  0     0  0  0  0  0  0999 V2000
    4.3667    6.4986    0.0000 C   0  0  0  0  0  0  0  0  0  0  0  0
    3.3873    6.2966    0.0000 C   0  0  0  0  0  0  0  0  0  0  0  0
    3.0726    5.3474    0.0000 C   0  0  0  0  0  0  0  0  0  0  0  0
    3.7429    4.5983    0.0000 C   0  0  0  0  0  0  0  0  0  0  0  0
    3.4282    3.6491    0.0000 C   0  0  0  0  0  0  0  0  0  0  0  0
    2.4500    3.4413    0.0000 C   0  0  0  0  0  0  0  0  0  0  0  0
    1.7797    4.1904    0.0000 C   0  0  0  0  0  0  0  0  0  0  0  0
    2.0876    5.1472    0.0000 C   0  0  0  0  0  0  0  0  0  0  0  0
    2.1395    2.4908    0.0000 C   0  0  0  0  0  0  0  0  0  0  0  0
    1.1610    2.2844    0.0000 O   0  0  0  0  0  0  0  0  0  0  0  0
    2.8074    1.7466    0.0000 C   0  0  0  0  0  0  0  0  0  0  0  0
    2.4969    0.7960    0.0000 N   0  3  0  0  0  0  0  0  0  0  0  0
    1.5440    0.4845    0.0000 C   0  0  0  0  0  0  0  0  0  0  0  0
    0.5961    0.8031    0.0000 C   0  0  0  0  0  0  0  0  0  0  0  0
    0.0000    0.0000    0.0000 C   0  0  0  0  0  0  0  0  0  0  0  0
    0.5797   -0.8148    0.0000 C   0  0  0  0  0  0  0  0  0  0  0  0
    1.5339   -0.5155    0.0000 N   0  0  0  0  0  0  0  0  0  0  0  0
    2.4888   -0.8311    0.0000 C   0  0  0  0  0  0  0  0  0  0  0  0
    3.0840   -0.0206    0.0000 C   0  0  0  0  0  0  0  0  0  0  0  0
    2.7930   -1.7837    0.0000 C   0  0  0  0  0  0  0  0  0  0  0  0
    3.7758   -1.9948    0.0000 C   0  0  0  0  0  0  0  0  0  0  0  0
    4.0800   -2.9474    0.0000 C   0  0  0  0  0  0  0  0  0  0  0  0
    3.4115   -3.6911    0.0000 C   0  0  0  0  0  0  0  0  0  0  0  0
    3.7198   -4.6424    0.0000 C   0  0  0  0  0  0  0  0  0  0  0  0
    2.4287   -3.4800    0.0000 C   0  0  0  0  0  0  0  0  0  0  0  0
    2.1144   -2.5253    0.0000 C   0  0  0  0  0  0  0  0  0  0  0  0
  1  2  1  0  0  0  0
  2  3  1  0  0  0  0
  3  8  1  0  0  0  0
  3  4  2  0  0  0  0
  4  5  1  0  0  0  0
  5  6  2  0  0  0  0
  6  7  1  0  0  0  0
  7  8  2  0  0  0  0
  6  9  1  0  0  0  0
  9 10  2  0  0  0  0
  9 11  1  0  0  0  0
 11 12  1  0  0  0  0
 12 19  1  0  0  0  0
 12 13  2  0  0  0  0
 13 17  1  0  0  0  0
 13 14  1  0  0  0  0
 14 15  1  0  0  0  0
 15 16  1  0  0  0  0
 16 17  1  0  0  0  0
 17 18  1  0  0  0  0
 18 19  2  0  0  0  0
 18 20  1  0  0  0  0
 20 26  1  0  0  0  0
 20 21  2  0  0  0  0
 21 22  1  0  0  0  0
 22 23  2  0  0  0  0
 23 24  1  0  0  0  0
 23 25  1  0  0  0  0
 25 26  2  0  0  0  0
M  CHG  1  12   1
M  END
> <JC_XSMILES>
CCC1=CC=C(C=C1)C(=O)C[N+]2=C3CCCN3C(=C2)C4=CC=C(C)C=C4

> <GNF-Pf identifier>
GNF-Pf-3763

> <PF proliferation inhibition 3D7 EC50 uM>
0.764

> <W2 Pf proliferation inhibition EC50 uM >
0.333

> <Huh7 cytotox for Pf inhibitiors CC50 uM>
32.72

> <Powder data?>
Yes

> <IFI value>
0.095238095

> <Salt>
No salt

> <Equiv of salt>
0

$$$$

  -OEChem-06281415292D

 26 28  0     0  0  0  0  0  0999 V2000
    4.6555    4.3960    0.0000 C   0  0  0  0  0  0  0  0  0  0  0  0
    4.6554    5.3960    0.0000 O   0  0  0  0  0  0  0  0  0  0  0  0
    3.7894    5.8960    0.0000 C   0  0  0  0  0  0  0  0  0  0  0  0
    3.7922    6.9012    0.0000 C   0  0  0  0  0  0  0  0  0  0  0  0
    2.9262    7.4011    0.0000 C   0  0  0  0  0  0  0  0  0  0  0  0
    2.0572    6.9061    0.0000 C   0  0  0  0  0  0  0  0  0  0  0  0
    1.1934    7.4099    0.0000 O   0  0  0  0  0  0  0  0  0  0  0  0
    0.3252    6.9136    0.0000 C   0  0  0  0  0  0  0  0  0  0  0  0
    2.0544    5.9009    0.0000 C   0  0  0  0  0  0  0  0  0  0  0  0
    2.9204    5.3907    0.0000 C   0  0  0  0  0  0  0  0  0  0  0  0
    1.1854    5.4060    0.0000 C   0  0  0  0  0  0  0  0  0  0  0  0
    0.3194    5.9162    0.0000 C   0  0  0  0  0  0  0  0  0  0  0  0
   -0.5496    5.4212    0.0000 C   0  0  0  0  0  0  0  0  0  0  0  0
   -0.5613    4.4213    0.0000 C   0  0  0  0  0  0  0  0  0  0  0  0
   -1.4324    3.9302    0.0000 O   0  0  0  0  0  0  0  0  0  0  0  0
    0.3048    3.9111    0.0000 C   0  0  0  0  0  0  0  0  0  0  0  0
    0.2931    2.9111    0.0000 C   0  0  0  0  0  0  0  0  0  0  0  0
    1.1532    2.4010    0.0000 N   0  0  0  0  0  0  0  0  0  0  0  0
    1.1415    1.4011    0.0000 C   0  0  0  0  0  0  0  0  0  0  0  0
    0.2348    0.9793    0.0000 C   0  0  0  0  0  0  0  0  0  0  0  0
    0.0000    0.0000    0.0000 C   0  0  0  0  0  0  0  0  0  0  0  0
    0.6197   -0.7929    0.0000 C   0  0  0  0  0  0  0  0  0  0  0  0
    1.6255   -0.8001    0.0000 C   0  0  0  0  0  0  0  0  0  0  0  0
    2.2616   -0.0241    0.0000 C   0  0  0  0  0  0  0  0  0  0  0  0
    2.0443    0.9551    0.0000 C   0  0  0  0  0  0  0  0  0  0  0  0
    1.1826    4.4008    0.0000 C   0  0  0  0  0  0  0  0  0  0  0  0
  1  2  1  0  0  0  0
  2  3  1  0  0  0  0
  3 10  1  0  0  0  0
  3  4  2  0  0  0  0
  4  5  1  0  0  0  0
  5  6  2  0  0  0  0
  6  7  1  0  0  0  0
  7  8  1  0  0  0  0
  6  9  1  0  0  0  0
  9 10  2  0  0  0  0
  9 11  1  0  0  0  0
 11 26  1  0  0  0  0
 11 12  2  0  0  0  0
 12 13  1  0  0  0  0
 13 14  2  0  0  0  0
 14 15  1  0  0  0  0
 14 16  1  0  0  0  0
 16 17  1  0  0  0  0
 17 18  1  0  0  0  0
 18 19  1  0  0  0  0
 19 25  1  0  0  0  0
 19 20  1  0  0  0  0
 20 21  1  0  0  0  0
 21 22  1  0  0  0  0
 22 23  1  0  0  0  0
 23 24  1  0  0  0  0
 24 25  1  0  0  0  0
 16 26  2  0  0  0  0
M  END
> <JC_XSMILES>
COC1=CC=C(OC)C(=C1)C2=CC=C(O)C(CNC3CCCCCC3)=C2

> <GNF-Pf identifier>
GNF-Pf-3817

> <PF proliferation inhibition 3D7 EC50 uM>
0.364

> <W2 Pf proliferation inhibition EC50 uM >
0.0975

> <Huh7 cytotox for Pf inhibitiors CC50 uM>
>10

> <Powder data?>
No

> <IFI value>
0.02970297

> <Salt>
No salt

> <Equiv of salt>
0

$$$$

  -OEChem-06281415292D

 32 35  0     0  0  0  0  0  0999 V2000
   -4.9749   -4.8926    0.0000 C   0  0  0  0  0  0  0  0  0  0  0  0
   -4.9797   -3.8926    0.0000 C   0  0  0  0  0  0  0  0  0  0  0  0
   -5.8481   -3.3968    0.0000 C   0  0  0  0  0  0  0  0  0  0  0  0
   -4.1161   -3.3885    0.0000 C   0  0  0  0  0  0  0  0  0  0  0  0
   -3.2469   -3.8831    0.0000 C   0  0  0  0  0  0  0  0  0  0  0  0
   -2.3811   -3.3827    0.0000 C   0  0  0  0  0  0  0  0  0  0  0  0
   -2.3845   -2.3775    0.0000 C   0  0  0  0  0  0  0  0  0  0  0  0
   -3.2537   -1.8727    0.0000 C   0  0  0  0  0  0  0  0  0  0  0  0
   -4.1195   -2.3833    0.0000 C   0  0  0  0  0  0  0  0  0  0  0  0
   -4.9886   -1.8887    0.0000 C   0  0  0  0  0  0  0  0  0  0  0  0
   -1.5186   -1.8772    0.0000 N   0  0  0  0  0  0  0  0  0  0  0  0
   -1.5190   -0.8772    0.0000 C   0  0  0  0  0  0  0  0  0  0  0  0
   -2.3852   -0.3775    0.0000 C   0  0  0  0  0  0  0  0  0  0  0  0
   -0.6532   -0.3768    0.0000 O   0  0  0  0  0  0  0  0  0  0  0  0
   -0.0028   -2.7516    0.0000 C   0  0  0  0  0  0  0  0  0  0  0  0
    0.8675   -2.2475    0.0000 C   0  0  0  0  0  0  0  0  0  0  0  0
    0.8675   -0.4975    0.0000 N   0  0  0  0  0  0  0  0  0  0  0  0
    0.0000    0.0000    0.0000 C   0  0  0  0  0  0  0  0  0  0  0  0
   -0.0000    1.0052    0.0000 C   0  0  0  0  0  0  0  0  0  0  0  0
    0.8675    1.5129    0.0000 O   0  0  0  0  0  0  0  0  0  0  0  0
    1.7350    1.0052    0.0000 C   0  0  0  0  0  0  0  0  0  0  0  0
    1.7350    0.0000    0.0000 C   0  0  0  0  0  0  0  0  0  0  0  0
    1.7370   -2.7512    0.0000 C   0  0  0  0  0  0  0  0  0  0  0  0
    2.6031   -2.2512    0.0000 O   0  0  0  0  0  0  0  0  0  0  0  0
    1.7384   -3.7512    0.0000 C   0  0  0  0  0  0  0  0  0  0  0  0
    2.6042   -4.2549    0.0000 C   0  0  0  0  0  0  0  0  0  0  0  0
    2.6072   -5.2555    0.0000 C   0  0  0  0  0  0  0  0  0  0  0  0
    1.7363   -5.7584    0.0000 C   0  0  0  0  0  0  0  0  0  0  0  0
    0.8625   -5.2608    0.0000 C   0  0  0  0  0  0  0  0  0  0  0  0
    0.8682   -4.2553    0.0000 C   0  0  0  0  0  0  0  0  0  0  0  0
   -0.0034   -3.7593    0.0000 C   0  0  0  0  0  0  0  0  0  0  0  0
   -0.8680   -4.2617    0.0000 O   0  0  0  0  0  0  0  0  0  0  0  0
  1  2  1  0  0  0  0
  2  3  1  0  0  0  0
  2  4  1  0  0  0  0
  4  9  1  0  0  0  0
  4  5  2  0  0  0  0
  5  6  1  0  0  0  0
  6  7  2  0  0  0  0
  7  8  1  0  0  0  0
  8  9  2  0  0  0  0
  9 10  1  0  0  0  0
  7 11  1  0  0  0  0
 11 12  1  0  0  0  0
 12 13  1  0  0  0  0
 12 14  2  0  0  0  0
 11 15  1  0  0  0  0
 15 31  1  0  0  0  0
 15 16  2  0  0  0  0
 16 17  1  0  0  0  0
 17 22  1  0  0  0  0
 17 18  1  0  0  0  0
 18 19  1  0  0  0  0
 19 20  1  0  0  0  0
 20 21  1  0  0  0  0
 21 22  1  0  0  0  0
 16 23  1  0  0  0  0
 23 24  2  0  0  0  0
 23 25  1  0  0  0  0
 25 30  1  0  0  0  0
 25 26  2  0  0  0  0
 26 27  1  0  0  0  0
 27 28  2  0  0  0  0
 28 29  1  0  0  0  0
 29 30  2  0  0  0  0
 30 31  1  0  0  0  0
 31 32  2  0  0  0  0
M  END
> <JC_XSMILES>
CC(C)C1=CC=C(C=C1C)N(C(C)=O)C2=C(N3CCOCC3)C(=O)C4=CC=CC=C4C2=O

> <GNF-Pf identifier>
GNF-Pf-3829

> <PF proliferation inhibition 3D7 EC50 uM>
0.02558

> <W2 Pf proliferation inhibition EC50 uM >
0.0881

> <Huh7 cytotox for Pf inhibitiors CC50 uM>
9.15

> <Powder data?>
Yes

> <IFI value>
0.076923077

> <Salt>
No salt

> <Equiv of salt>
0

$$$$

  -OEChem-06281415292D

 27 29  0     0  0  0  0  0  0999 V2000
    0.8643    2.5059    0.0000 C   0  0  0  0  0  0  0  0  0  0  0  0
    0.8646    1.5059    0.0000 N   0  0  0  0  0  0  0  0  0  0  0  0
    1.7308    1.0062    0.0000 C   0  0  0  0  0  0  0  0  0  0  0  0
   -0.0013    1.0057    0.0000 C   0  0  0  0  0  0  0  0  0  0  0  0
    0.0000    0.0000    0.0000 C   0  0  0  0  0  0  0  0  0  0  0  0
    1.5154   -0.8752    0.0000 N   0  0  0  0  0  0  0  0  0  0  0  0
    2.3815   -0.3753    0.0000 C   0  0  0  0  0  0  0  0  0  0  0  0
    2.3816    0.6247    0.0000 C   0  0  0  0  0  0  0  0  0  0  0  0
    3.2475   -0.8754    0.0000 O   0  0  0  0  0  0  0  0  0  0  0  0
    1.5153   -1.8752    0.0000 C   0  0  0  0  0  0  0  0  0  0  0  0
    0.6433   -2.3751    0.0000 C   0  0  0  0  0  0  0  0  0  0  0  0
    0.6431   -3.3751    0.0000 C   0  0  0  0  0  0  0  0  0  0  0  0
    1.5061   -3.8803    0.0000 C   0  0  0  0  0  0  0  0  0  0  0  0
    1.5016   -4.8803    0.0000 Cl  0  0  0  0  0  0  0  0  0  0  0  0
    2.3782   -3.3804    0.0000 C   0  0  0  0  0  0  0  0  0  0  0  0
    3.2412   -3.8856    0.0000 Cl  0  0  0  0  0  0  0  0  0  0  0  0
    2.3872   -2.3753    0.0000 C   0  0  0  0  0  0  0  0  0  0  0  0
   -0.8710   -0.5011    0.0000 C   0  0  0  0  0  0  0  0  0  0  0  0
   -0.8711   -1.5011    0.0000 O   0  0  0  0  0  0  0  0  0  0  0  0
   -1.7377   -0.0022    0.0000 C   0  0  0  0  0  0  0  0  0  0  0  0
   -2.6069   -0.5000    0.0000 C   0  0  0  0  0  0  0  0  0  0  0  0
   -3.4748   -0.0022    0.0000 C   0  0  0  0  0  0  0  0  0  0  0  0
   -3.4748    1.0035    0.0000 C   0  0  0  0  0  0  0  0  0  0  0  0
   -2.6069    1.5113    0.0000 C   0  0  0  0  0  0  0  0  0  0  0  0
   -1.7390    1.0035    0.0000 C   0  0  0  0  0  0  0  0  0  0  0  0
   -0.8736    1.5102    0.0000 C   0  0  0  0  0  0  0  0  0  0  0  0
   -0.8763    2.5102    0.0000 O   0  0  0  0  0  0  0  0  0  0  0  0
  1  2  1  0  0  0  0
  2  3  1  0  0  0  0
  2  4  1  0  0  0  0
  4 26  1  0  0  0  0
  4  5  2  0  0  0  0
  5  6  1  0  0  0  0
  6  7  1  0  0  0  0
  7  8  1  0  0  0  0
  7  9  2  0  0  0  0
  6 10  1  0  0  0  0
 10 17  1  0  0  0  0
 10 11  2  0  0  0  0
 11 12  1  0  0  0  0
 12 13  2  0  0  0  0
 13 14  1  0  0  0  0
 13 15  1  0  0  0  0
 15 16  1  0  0  0  0
 15 17  2  0  0  0  0
  5 18  1  0  0  0  0
 18 19  2  0  0  0  0
 18 20  1  0  0  0  0
 20 25  1  0  0  0  0
 20 21  2  0  0  0  0
 21 22  1  0  0  0  0
 22 23  2  0  0  0  0
 23 24  1  0  0  0  0
 24 25  2  0  0  0  0
 25 26  1  0  0  0  0
 26 27  2  0  0  0  0
M  END
> <JC_XSMILES>
CN(C)C1=C(N(C(C)=O)C2=CC=C(Cl)C(Cl)=C2)C(=O)C3=CC=CC=C3C1=O

> <GNF-Pf identifier>
GNF-Pf-3930

> <PF proliferation inhibition 3D7 EC50 uM>
0.082

> <W2 Pf proliferation inhibition EC50 uM >
0.0734

> <Huh7 cytotox for Pf inhibitiors CC50 uM>
8.35

> <Powder data?>
Yes

> <IFI value>
0.076923077

> <Salt>
No salt

> <Equiv of salt>
0

$$$$

  -OEChem-06281415292D

 22 25  0     0  0  0  0  0  0999 V2000
   -1.0207    2.4572    0.0000 C   0  0  0  0  0  0  0  0  0  0  0  0
   -0.7055    3.4062    0.0000 C   0  0  0  0  0  0  0  0  0  0  0  0
   -1.3698    4.1537    0.0000 C   0  0  0  0  0  0  0  0  0  0  0  0
   -2.3538    3.9482    0.0000 C   0  0  0  0  0  0  0  0  0  0  0  0
   -3.0181    4.6956    0.0000 C   0  0  0  0  0  0  0  0  0  0  0  0
   -2.7085    5.6465    0.0000 C   0  0  0  0  0  0  0  0  0  0  0  0
   -1.7246    5.8520    0.0000 C   0  0  0  0  0  0  0  0  0  0  0  0
   -1.0502    5.1067    0.0000 C   0  0  0  0  0  0  0  0  0  0  0  0
   -0.3563    1.7097    0.0000 N   0  0  0  0  0  0  0  0  0  0  0  0
   -0.6715    0.7607    0.0000 C   0  0  0  0  0  0  0  0  0  0  0  0
    0.0000    0.0000    0.0000 N   0  0  0  0  0  0  0  0  0  0  0  0
   -0.3205   -0.9605    0.0000 C   0  0  0  0  0  0  0  0  0  0  0  0
   -1.3124   -1.1604    0.0000 N   0  0  0  0  0  0  0  0  0  0  0  0
   -1.9803   -0.4068    0.0000 C   0  0  0  0  0  0  0  0  0  0  0  0
   -1.6599    0.5538    0.0000 C   0  0  0  0  0  0  0  0  0  0  0  0
   -2.4768    1.1478    0.0000 N   0  0  0  0  0  0  0  0  0  0  0  0
   -3.2868    0.5554    0.0000 C   0  0  0  0  0  0  0  0  0  0  0  0
   -4.2648    0.7681    0.0000 C   0  0  0  0  0  0  0  0  0  0  0  0
   -4.9434    0.0258    0.0000 C   0  0  0  0  0  0  0  0  0  0  0  0
   -4.6369   -0.9329    0.0000 C   0  0  0  0  0  0  0  0  0  0  0  0
   -3.6518   -1.1492    0.0000 C   0  0  0  0  0  0  0  0  0  0  0  0
   -2.9803   -0.4033    0.0000 C   0  0  0  0  0  0  0  0  0  0  0  0
  1  2  1  0  0  0  0
  2  3  1  0  0  0  0
  3  8  1  0  0  0  0
  3  4  2  0  0  0  0
  4  5  1  0  0  0  0
  5  6  2  0  0  0  0
  6  7  1  0  0  0  0
  7  8  2  0  0  0  0
  1  9  1  0  0  0  0
  9 10  1  0  0  0  0
 10 15  1  0  0  0  0
 10 11  2  0  0  0  0
 11 12  1  0  0  0  0
 12 13  2  0  0  0  0
 13 14  1  0  0  0  0
 14 22  1  0  0  0  0
 14 15  2  0  0  0  0
 15 16  1  0  0  0  0
 16 17  1  0  0  0  0
 17 22  1  0  0  0  0
 17 18  2  0  0  0  0
 18 19  1  0  0  0  0
 19 20  2  0  0  0  0
 20 21  1  0  0  0  0
 21 22  2  0  0  0  0
M  END
> <JC_XSMILES>
C(CC1=CC=CC=C1)NC2=NC=NC3=C2NC4=CC=CC=C34

> <GNF-Pf identifier>
GNF-Pf-3937

> <PF proliferation inhibition 3D7 EC50 uM>
0.167

> <W2 Pf proliferation inhibition EC50 uM >
0.1365

> <Huh7 cytotox for Pf inhibitiors CC50 uM>
15.59

> <Powder data?>
Yes

> <IFI value>
0.219512195

> <Salt>
No salt

> <Equiv of salt>
0

$$$$

  -OEChem-06281415292D

 34 38  0     0  0  0  0  0  0999 V2000
   -0.8785    6.4988    0.0000 C   0  0  0  0  0  0  0  0  0  0  0  0
   -1.7452    6.0001    0.0000 O   0  0  0  0  0  0  0  0  0  0  0  0
   -1.7467    5.0001    0.0000 C   0  0  0  0  0  0  0  0  0  0  0  0
   -0.8755    4.4988    0.0000 C   0  0  0  0  0  0  0  0  0  0  0  0
   -0.8769    3.4987    0.0000 C   0  0  0  0  0  0  0  0  0  0  0  0
   -1.7408    2.9949    0.0000 C   0  0  0  0  0  0  0  0  0  0  0  0
   -1.7379    1.9950    0.0000 C   0  0  0  0  0  0  0  0  0  0  0  0
   -0.8704    1.4975    0.0000 N   0  0  0  0  0  0  0  0  0  0  0  0
   -0.8675    0.4975    0.0000 C   0  0  0  0  0  0  0  0  0  0  0  0
    0.0000    0.0000    0.0000 C   0  0  0  0  0  0  0  0  0  0  0  0
    0.8680    0.5079    0.0000 C   0  0  0  0  0  0  0  0  0  0  0  0
    1.7360   -0.0000    0.0000 C   0  0  0  0  0  0  0  0  0  0  0  0
    1.7360   -1.0071    0.0000 C   0  0  0  0  0  0  0  0  0  0  0  0
    0.8680   -1.5037    0.0000 N   0  0  0  0  0  0  0  0  0  0  0  0
    0.0000   -1.0058    0.0000 C   0  0  0  0  0  0  0  0  0  0  0  0
   -0.8653   -1.5070    0.0000 O   0  0  0  0  0  0  0  0  0  0  0  0
    2.6938   -1.3184    0.0000 N   0  0  0  0  0  0  0  0  0  0  0  0
    3.2858   -0.5036    0.0000 N   0  0  0  0  0  0  0  0  0  0  0  0
    2.6938    0.3110    0.0000 C   0  0  0  0  0  0  0  0  0  0  0  0
    3.0028    1.2620    0.0000 C   0  0  0  0  0  0  0  0  0  0  0  0
    2.3281    2.0071    0.0000 C   0  0  0  0  0  0  0  0  0  0  0  0
    2.6371    2.9582    0.0000 C   0  0  0  0  0  0  0  0  0  0  0  0
    3.6140    3.1718    0.0000 C   0  0  0  0  0  0  0  0  0  0  0  0
    3.9189    4.1242    0.0000 C   0  0  0  0  0  0  0  0  0  0  0  0
    4.2888    2.4267    0.0000 C   0  0  0  0  0  0  0  0  0  0  0  0
    3.9866    1.4681    0.0000 C   0  0  0  0  0  0  0  0  0  0  0  0
    3.0028   -2.2695    0.0000 C   0  0  0  0  0  0  0  0  0  0  0  0
    3.9866   -2.4756    0.0000 C   0  0  0  0  0  0  0  0  0  0  0  0
    4.2956   -3.4267    0.0000 C   0  0  0  0  0  0  0  0  0  0  0  0
    3.6308   -4.1737    0.0000 C   0  0  0  0  0  0  0  0  0  0  0  0
    2.6470   -3.9676    0.0000 C   0  0  0  0  0  0  0  0  0  0  0  0
    2.3280   -3.0144    0.0000 C   0  0  0  0  0  0  0  0  0  0  0  0
   -2.6120    3.4963    0.0000 C   0  0  0  0  0  0  0  0  0  0  0  0
   -2.6194    4.5014    0.0000 C   0  0  0  0  0  0  0  0  0  0  0  0
  1  2  1  0  0  0  0
  2  3  1  0  0  0  0
  3 34  1  0  0  0  0
  3  4  2  0  0  0  0
  4  5  1  0  0  0  0
  5  6  2  0  0  0  0
  6  7  1  0  0  0  0
  7  8  1  0  0  0  0
  8  9  1  0  0  0  0
  9 10  1  0  0  0  0
 10 15  1  0  0  0  0
 10 11  2  0  0  0  0
 11 12  1  0  0  0  0
 12 19  1  0  0  0  0
 12 13  2  0  0  0  0
 13 14  1  0  0  0  0
 14 15  1  0  0  0  0
 15 16  2  0  0  0  0
 13 17  1  0  0  0  0
 17 18  1  0  0  0  0
 18 19  2  0  0  0  0
 19 20  1  0  0  0  0
 20 26  1  0  0  0  0
 20 21  2  0  0  0  0
 21 22  1  0  0  0  0
 22 23  2  0  0  0  0
 23 24  1  0  0  0  0
 23 25  1  0  0  0  0
 25 26  2  0  0  0  0
 17 27  1  0  0  0  0
 27 32  1  0  0  0  0
 27 28  2  0  0  0  0
 28 29  1  0  0  0  0
 29 30  2  0  0  0  0
 30 31  1  0  0  0  0
 31 32  2  0  0  0  0
  6 33  1  0  0  0  0
 33 34  2  0  0  0  0
M  END
> <JC_XSMILES>
COC1=CC=C(CNCC2=CC3=C(NC2=O)N(N=C3C4=CC=C(C)C=C4)C5=CC=CC=C5)C=C1

> <GNF-Pf identifier>
GNF-Pf-3984

> <PF proliferation inhibition 3D7 EC50 uM>
0.1329

> <W2 Pf proliferation inhibition EC50 uM >
0.842

> <Huh7 cytotox for Pf inhibitiors CC50 uM>
>100

> <Powder data?>
Yes

> <IFI value>
0.081081081

> <Salt>
No salt

> <Equiv of salt>
0

$$$$

  -OEChem-06281415292D

 29 33  0     0  0  0  0  0  0999 V2000
    0.9800    0.1992    0.0000 C   0  0  0  0  0  0  0  0  0  0  0  0
    0.0000    0.0000    0.0000 C   0  0  0  0  0  0  0  0  0  0  0  0
   -0.6715    0.7607    0.0000 C   0  0  0  0  0  0  0  0  0  0  0  0
   -0.3563    1.7097    0.0000 C   0  0  0  0  0  0  0  0  0  0  0  0
   -0.0412    2.6588    0.0000 N   0  0  0  0  0  0  0  0  0  0  0  0
   -1.6599    0.5538    0.0000 C   0  0  0  0  0  0  0  0  0  0  0  0
   -2.4768    1.1478    0.0000 N   0  0  0  0  0  0  0  0  0  0  0  0
   -3.2868    0.5554    0.0000 C   0  0  0  0  0  0  0  0  0  0  0  0
   -4.2648    0.7681    0.0000 C   0  0  0  0  0  0  0  0  0  0  0  0
   -4.9434    0.0258    0.0000 C   0  0  0  0  0  0  0  0  0  0  0  0
   -4.6369   -0.9329    0.0000 C   0  0  0  0  0  0  0  0  0  0  0  0
   -3.6518   -1.1492    0.0000 C   0  0  0  0  0  0  0  0  0  0  0  0
   -2.9803   -0.4033    0.0000 C   0  0  0  0  0  0  0  0  0  0  0  0
   -1.9803   -0.4068    0.0000 N   0  0  0  0  0  0  0  0  0  0  0  0
   -1.3124   -1.1604    0.0000 C   0  0  0  0  0  0  0  0  0  0  0  0
   -0.3205   -0.9605    0.0000 C   0  0  0  0  0  0  0  0  0  0  0  0
   -1.6302   -2.1086    0.0000 N   0  0  0  0  0  0  0  0  0  0  0  0
   -2.6139   -2.3141    0.0000 C   0  0  0  0  0  0  0  0  0  0  0  0
   -2.9333   -3.2671    0.0000 C   0  0  0  0  0  0  0  0  0  0  0  0
   -2.2689   -4.0146    0.0000 N   0  0  0  0  0  0  0  0  0  0  0  0
   -1.2884   -3.8184    0.0000 C   0  0  0  0  0  0  0  0  0  0  0  0
   -0.9690   -2.8654    0.0000 C   0  0  0  0  0  0  0  0  0  0  0  0
   -2.5867   -4.9627    0.0000 C   0  0  0  0  0  0  0  0  0  0  0  0
   -1.9245   -5.7120    0.0000 C   0  0  0  0  0  0  0  0  0  0  0  0
   -0.9399   -5.5092    0.0000 C   0  0  0  0  0  0  0  0  0  0  0  0
   -0.2776   -6.2585    0.0000 C   0  0  0  0  0  0  0  0  0  0  0  0
   -0.5898   -7.2085    0.0000 C   0  0  0  0  0  0  0  0  0  0  0  0
   -1.5744   -7.4113    0.0000 C   0  0  0  0  0  0  0  0  0  0  0  0
   -2.2467   -6.6641    0.0000 C   0  0  0  0  0  0  0  0  0  0  0  0
  1  2  1  0  0  0  0
  2 16  1  0  0  0  0
  2  3  2  0  0  0  0
  3  4  1  0  0  0  0
  4  5  3  0  0  0  0
  3  6  1  0  0  0  0
  6 14  1  0  0  0  0
  6  7  2  0  0  0  0
  7  8  1  0  0  0  0
  8 13  1  0  0  0  0
  8  9  2  0  0  0  0
  9 10  1  0  0  0  0
 10 11  2  0  0  0  0
 11 12  1  0  0  0  0
 12 13  2  0  0  0  0
 13 14  1  0  0  0  0
 14 15  1  0  0  0  0
 15 16  2  0  0  0  0
 15 17  1  0  0  0  0
 17 22  1  0  0  0  0
 17 18  1  0  0  0  0
 18 19  1  0  0  0  0
 19 20  1  0  0  0  0
 20 21  1  0  0  0  0
 21 22  1  0  0  0  0
 20 23  1  0  0  0  0
 23 24  1  0  0  0  0
 24 29  1  0  0  0  0
 24 25  2  0  0  0  0
 25 26  1  0  0  0  0
 26 27  2  0  0  0  0
 27 28  1  0  0  0  0
 28 29  2  0  0  0  0
M  END
> <JC_XSMILES>
CC1=C(C#N)C2=NC3=CC=CC=C3N2C(=C1)N4CCN(CC4)CC5=CC=CC=C5

> <GNF-Pf identifier>
GNF-Pf-3994

> <PF proliferation inhibition 3D7 EC50 uM>
0.323

> <W2 Pf proliferation inhibition EC50 uM >
0.832

> <Huh7 cytotox for Pf inhibitiors CC50 uM>
>100

> <Powder data?>
Yes

> <IFI value>
0.046153846

> <Salt>
No salt

> <Equiv of salt>
0

$$$$

  -OEChem-06281415292D

 36 39  0     0  0  0  0  0  0999 V2000
    6.9447   -1.9954    0.0000 C   0  0  0  0  0  0  0  0  0  0  0  0
    6.0780   -1.4966    0.0000 O   0  0  0  0  0  0  0  0  0  0  0  0
    5.2127   -1.9979    0.0000 C   0  0  0  0  0  0  0  0  0  0  0  0
    5.2127   -2.9979    0.0000 C   0  0  0  0  0  0  0  0  0  0  0  0
    4.3495   -3.5029    0.0000 C   0  0  0  0  0  0  0  0  0  0  0  0
    3.4775   -3.0028    0.0000 C   0  0  0  0  0  0  0  0  0  0  0  0
    3.4687   -1.9977    0.0000 C   0  0  0  0  0  0  0  0  0  0  0  0
    4.3407   -1.4978    0.0000 C   0  0  0  0  0  0  0  0  0  0  0  0
    4.3408   -0.4978    0.0000 C   0  0  0  0  0  0  0  0  0  0  0  0
    3.4748    0.0023    0.0000 N   0  0  0  0  0  0  0  0  0  0  0  0
    2.6038   -0.4989    0.0000 C   0  0  0  0  0  0  0  0  0  0  0  0
    2.6037   -1.4989    0.0000 O   0  0  0  0  0  0  0  0  0  0  0  0
    1.7371    0.0000    0.0000 C   0  0  0  0  0  0  0  0  0  0  0  0
    0.8679   -0.4977    0.0000 C   0  0  0  0  0  0  0  0  0  0  0  0
    0.0000    0.0000    0.0000 C   0  0  0  0  0  0  0  0  0  0  0  0
   -0.8653   -0.5013    0.0000 Br  0  0  0  0  0  0  0  0  0  0  0  0
   -0.0000    1.0056    0.0000 C   0  0  0  0  0  0  0  0  0  0  0  0
    0.8679    1.5135    0.0000 C   0  0  0  0  0  0  0  0  0  0  0  0
    1.7358    1.0056    0.0000 C   0  0  0  0  0  0  0  0  0  0  0  0
    2.6012    1.5123    0.0000 N   0  0  0  0  0  0  0  0  0  0  0  0
    3.4735    1.0079    0.0000 C   0  0  0  0  0  0  0  0  0  0  0  0
    4.3394    1.5082    0.0000 S   0  0  0  0  0  0  0  0  0  0  0  0
    4.3391    2.5082    0.0000 C   0  0  0  0  0  0  0  0  0  0  0  0
    5.2049    3.0084    0.0000 C   0  0  0  0  0  0  0  0  0  0  0  0
    6.0711    2.5087    0.0000 O   0  0  0  0  0  0  0  0  0  0  0  0
    5.2046    4.0084    0.0000 N   0  0  0  0  0  0  0  0  0  0  0  0
    6.0705    4.5087    0.0000 C   0  0  0  0  0  0  0  0  0  0  0  0
    6.9397    4.0038    0.0000 C   0  0  0  0  0  0  0  0  0  0  0  0
    7.8056    4.5041    0.0000 C   0  0  0  0  0  0  0  0  0  0  0  0
    7.8111    5.5041    0.0000 C   0  0  0  0  0  0  0  0  0  0  0  0
    6.9419    6.0090    0.0000 C   0  0  0  0  0  0  0  0  0  0  0  0
    6.0672    5.5139    0.0000 C   0  0  0  0  0  0  0  0  0  0  0  0
    6.9475    7.0090    0.0000 C   0  0  0  0  0  0  0  0  0  0  0  0
    5.9475    7.0145    0.0000 F   0  0  0  0  0  0  0  0  0  0  0  0
    7.9475    7.0034    0.0000 F   0  0  0  0  0  0  0  0  0  0  0  0
    6.9531    8.0089    0.0000 F   0  0  0  0  0  0  0  0  0  0  0  0
  1  2  1  0  0  0  0
  2  3  1  0  0  0  0
  3  8  1  0  0  0  0
  3  4  2  0  0  0  0
  4  5  1  0  0  0  0
  5  6  2  0  0  0  0
  6  7  1  0  0  0  0
  7  8  2  0  0  0  0
  8  9  1  0  0  0  0
  9 10  1  0  0  0  0
 10 21  1  0  0  0  0
 10 11  1  0  0  0  0
 11 12  2  0  0  0  0
 11 13  1  0  0  0  0
 13 19  1  0  0  0  0
 13 14  2  0  0  0  0
 14 15  1  0  0  0  0
 15 16  1  0  0  0  0
 15 17  2  0  0  0  0
 17 18  1  0  0  0  0
 18 19  2  0  0  0  0
 19 20  1  0  0  0  0
 20 21  2  0  0  0  0
 21 22  1  0  0  0  0
 22 23  1  0  0  0  0
 23 24  1  0  0  0  0
 24 25  2  0  0  0  0
 24 26  1  0  0  0  0
 26 27  1  0  0  0  0
 27 32  1  0  0  0  0
 27 28  2  0  0  0  0
 28 29  1  0  0  0  0
 29 30  2  0  0  0  0
 30 31  1  0  0  0  0
 31 32  2  0  0  0  0
 31 33  1  0  0  0  0
 33 34  1  0  0  0  0
 33 35  1  0  0  0  0
 33 36  1  0  0  0  0
M  END
> <JC_XSMILES>
COC1=CC=CC=C1CN2C(=O)C3=CC(Br)=CC=C3N=C2SCC(=O)NC4=CC=CC(=C4)C(F)(F)F

> <GNF-Pf identifier>
GNF-Pf-3995

> <PF proliferation inhibition 3D7 EC50 uM>
0.735

> <W2 Pf proliferation inhibition EC50 uM >
0.831

> <Huh7 cytotox for Pf inhibitiors CC50 uM>
>100

> <Powder data?>
Yes

> <IFI value>
0.043478261

> <Salt>
No salt

> <Equiv of salt>
0

$$$$

  -OEChem-06281415292D

 30 34  0     0  0  0  0  0  0999 V2000
    5.2657    3.6462    0.0000 F   0  0  0  0  0  0  0  0  0  0  0  0
    4.2888    3.4325    0.0000 C   0  0  0  0  0  0  0  0  0  0  0  0
    3.6140    4.1776    0.0000 C   0  0  0  0  0  0  0  0  0  0  0  0
    2.6371    3.9640    0.0000 C   0  0  0  0  0  0  0  0  0  0  0  0
    2.3281    3.0129    0.0000 C   0  0  0  0  0  0  0  0  0  0  0  0
    3.0029    2.2678    0.0000 C   0  0  0  0  0  0  0  0  0  0  0  0
    3.9866    2.4739    0.0000 C   0  0  0  0  0  0  0  0  0  0  0  0
    2.6938    1.3168    0.0000 C   0  0  0  0  0  0  0  0  0  0  0  0
    3.2858    0.5022    0.0000 N   0  0  0  0  0  0  0  0  0  0  0  0
    2.6938   -0.3126    0.0000 N   0  0  0  0  0  0  0  0  0  0  0  0
    1.7360   -0.0013    0.0000 C   0  0  0  0  0  0  0  0  0  0  0  0
    0.8680   -0.4979    0.0000 C   0  0  0  0  0  0  0  0  0  0  0  0
    0.0000    0.0000    0.0000 C   0  0  0  0  0  0  0  0  0  0  0  0
   -0.0000    1.0058    0.0000 C   0  0  0  0  0  0  0  0  0  0  0  0
   -0.8675    1.5033    0.0000 S   0  0  0  0  0  0  0  0  0  0  0  0
   -1.7320    1.0008    0.0000 C   0  0  0  0  0  0  0  0  0  0  0  0
   -2.5995    1.4982    0.0000 C   0  0  0  0  0  0  0  0  0  0  0  0
   -2.6024    2.4982    0.0000 O   0  0  0  0  0  0  0  0  0  0  0  0
   -3.4641    0.9957    0.0000 N   0  0  0  0  0  0  0  0  0  0  0  0
   -4.3316    1.4932    0.0000 C   0  0  0  0  0  0  0  0  0  0  0  0
   -4.3316    2.4990    0.0000 C   0  0  0  0  0  0  0  0  0  0  0  0
   -5.1996    2.9969    0.0000 C   0  0  0  0  0  0  0  0  0  0  0  0
   -6.0676    2.5003    0.0000 C   0  0  0  0  0  0  0  0  0  0  0  0
   -7.0254    2.8116    0.0000 O   0  0  0  0  0  0  0  0  0  0  0  0
   -7.6174    1.9968    0.0000 C   0  0  0  0  0  0  0  0  0  0  0  0
   -7.0254    1.1822    0.0000 O   0  0  0  0  0  0  0  0  0  0  0  0
   -6.0676    1.4932    0.0000 C   0  0  0  0  0  0  0  0  0  0  0  0
   -5.1996    0.9853    0.0000 C   0  0  0  0  0  0  0  0  0  0  0  0
    0.8680    1.5137    0.0000 N   0  0  0  0  0  0  0  0  0  0  0  0
    1.7360    1.0058    0.0000 N   0  0  0  0  0  0  0  0  0  0  0  0
  1  2  1  0  0  0  0
  2  7  1  0  0  0  0
  2  3  2  0  0  0  0
  3  4  1  0  0  0  0
  4  5  2  0  0  0  0
  5  6  1  0  0  0  0
  6  7  2  0  0  0  0
  6  8  1  0  0  0  0
  8 30  1  0  0  0  0
  8  9  2  0  0  0  0
  9 10  1  0  0  0  0
 10 11  2  0  0  0  0
 11 30  1  0  0  0  0
 11 12  1  0  0  0  0
 12 13  2  0  0  0  0
 13 14  1  0  0  0  0
 14 15  1  0  0  0  0
 15 16  1  0  0  0  0
 16 17  1  0  0  0  0
 17 18  2  0  0  0  0
 17 19  1  0  0  0  0
 19 20  1  0  0  0  0
 20 28  1  0  0  0  0
 20 21  2  0  0  0  0
 21 22  1  0  0  0  0
 22 23  2  0  0  0  0
 23 27  1  0  0  0  0
 23 24  1  0  0  0  0
 24 25  1  0  0  0  0
 25 26  1  0  0  0  0
 26 27  1  0  0  0  0
 27 28  2  0  0  0  0
 14 29  2  0  0  0  0
 29 30  1  0  0  0  0
M  END
> <JC_XSMILES>
FC1=CC=CC(=C1)C2=NN=C3C=CC(SCC(=O)NC4=CC=C5OCOC5=C4)=NN23

> <GNF-Pf identifier>
GNF-Pf-4010

> <PF proliferation inhibition 3D7 EC50 uM>
2.107

> <W2 Pf proliferation inhibition EC50 uM >
0.819

> <Huh7 cytotox for Pf inhibitiors CC50 uM>
>100

> <Powder data?>
Yes

> <IFI value>
0

> <Salt>
No salt

> <Equiv of salt>
0

$$$$

  -OEChem-06281415292D

 23 24  0     0  0  0  0  0  0999 V2000
    1.7379    3.0001    0.0000 C   0  0  0  0  0  0  0  0  0  0  0  0
    1.7350    2.0001    0.0000 N   0  0  0  0  0  0  0  0  0  0  0  0
    2.5995    1.4976    0.0000 C   0  0  0  0  0  0  0  0  0  0  0  0
    0.8675    1.5027    0.0000 C   0  0  0  0  0  0  0  0  0  0  0  0
    0.8675    0.4975    0.0000 C   0  0  0  0  0  0  0  0  0  0  0  0
    0.0000    0.0000    0.0000 C   0  0  0  0  0  0  0  0  0  0  0  0
   -0.8675    0.4975    0.0000 C   0  0  0  0  0  0  0  0  0  0  0  0
   -1.7328   -0.0038    0.0000 C   0  0  0  0  0  0  0  0  0  0  0  0
   -1.7313   -1.0038    0.0000 C   0  0  0  0  0  0  0  0  0  0  0  0
   -2.5966   -1.5050    0.0000 C   0  0  0  0  0  0  0  0  0  0  0  0
   -3.4634   -1.0063    0.0000 O   0  0  0  0  0  0  0  0  0  0  0  0
   -2.5952   -2.5050    0.0000 N   0  0  0  0  0  0  0  0  0  0  0  0
   -3.4605   -3.0063    0.0000 C   0  0  0  0  0  0  0  0  0  0  0  0
   -4.3272   -2.5075    0.0000 O   0  0  0  0  0  0  0  0  0  0  0  0
   -3.4590   -4.0063    0.0000 C   0  0  0  0  0  0  0  0  0  0  0  0
   -2.5930   -4.5063    0.0000 C   0  0  0  0  0  0  0  0  0  0  0  0
   -2.5872   -5.5063    0.0000 C   0  0  0  0  0  0  0  0  0  0  0  0
   -3.4563   -6.0114    0.0000 C   0  0  0  0  0  0  0  0  0  0  0  0
   -4.3311   -5.5165    0.0000 C   0  0  0  0  0  0  0  0  0  0  0  0
   -4.3281   -4.5114    0.0000 C   0  0  0  0  0  0  0  0  0  0  0  0
   -5.1941   -4.0113    0.0000 O   0  0  0  0  0  0  0  0  0  0  0  0
   -0.8675    1.5027    0.0000 C   0  0  0  0  0  0  0  0  0  0  0  0
    0.0000    2.0104    0.0000 C   0  0  0  0  0  0  0  0  0  0  0  0
  1  2  1  0  0  0  0
  2  3  1  0  0  0  0
  2  4  1  0  0  0  0
  4 23  1  0  0  0  0
  4  5  2  0  0  0  0
  5  6  1  0  0  0  0
  6  7  2  0  0  0  0
  7  8  1  0  0  0  0
  8  9  2  0  0  0  0
  9 10  1  0  0  0  0
 10 11  2  0  0  0  0
 10 12  1  0  0  0  0
 12 13  1  0  0  0  0
 13 14  2  0  0  0  0
 13 15  1  0  0  0  0
 15 20  1  0  0  0  0
 15 16  2  0  0  0  0
 16 17  1  0  0  0  0
 17 18  2  0  0  0  0
 18 19  1  0  0  0  0
 19 20  2  0  0  0  0
 20 21  1  0  0  0  0
  7 22  1  0  0  0  0
 22 23  2  0  0  0  0
M  END
> <JC_XSMILES>
CN(C)C1=CC=C(\C=C\C(=O)NC(=O)C2=CC=CC=C2O)C=C1

> <GNF-Pf identifier>
GNF-Pf-4105

> <PF proliferation inhibition 3D7 EC50 uM>
0.0844

> <W2 Pf proliferation inhibition EC50 uM >
0.0752

> <Huh7 cytotox for Pf inhibitiors CC50 uM>
>10

> <Powder data?>
No

> <IFI value>
0.105882353

> <Salt>
No salt

> <Equiv of salt>
0

$$$$

  -OEChem-06281415292D

 20 22  0     0  0  0  0  0  0999 V2000
    3.0029    2.2678    0.0000 C   0  0  0  0  0  0  0  0  0  0  0  0
    2.6938    1.3168    0.0000 N   0  0  0  0  0  0  0  0  0  0  0  0
    3.2858    0.5022    0.0000 C   0  0  0  0  0  0  0  0  0  0  0  0
    4.2858    0.5023    0.0000 N   0  0  0  0  0  0  0  0  0  0  0  0
    4.7857    1.3683    0.0000 N   0  0  0  0  0  0  0  0  0  0  0  0
    5.7857    1.3684    0.0000 C   0  0  0  0  0  0  0  0  0  0  0  0
    6.2871    0.5031    0.0000 C   0  0  0  0  0  0  0  0  0  0  0  0
    7.2871    0.4988    0.0000 C   0  0  0  0  0  0  0  0  0  0  0  0
    7.7909    1.3686    0.0000 C   0  0  0  0  0  0  0  0  0  0  0  0
    8.7909    1.3643    0.0000 C   0  0  0  0  0  0  0  0  0  0  0  0
    7.2947    2.2427    0.0000 C   0  0  0  0  0  0  0  0  0  0  0  0
    6.2896    2.2382    0.0000 C   0  0  0  0  0  0  0  0  0  0  0  0
    5.7882    3.1034    0.0000 C   0  0  0  0  0  0  0  0  0  0  0  0
    2.6938   -0.3126    0.0000 N   0  0  0  0  0  0  0  0  0  0  0  0
    1.7360   -0.0013    0.0000 C   0  0  0  0  0  0  0  0  0  0  0  0
    0.8680   -0.4979    0.0000 C   0  0  0  0  0  0  0  0  0  0  0  0
    0.0000    0.0000    0.0000 C   0  0  0  0  0  0  0  0  0  0  0  0
   -0.0000    1.0058    0.0000 C   0  0  0  0  0  0  0  0  0  0  0  0
    0.8680    1.5137    0.0000 C   0  0  0  0  0  0  0  0  0  0  0  0
    1.7360    1.0058    0.0000 C   0  0  0  0  0  0  0  0  0  0  0  0
  1  2  1  0  0  0  0
  2 20  1  0  0  0  0
  2  3  1  0  0  0  0
  3  4  1  0  0  0  0
  4  5  2  3  0  0  0
  5  6  1  0  0  0  0
  6 12  1  0  0  0  0
  6  7  2  0  0  0  0
  7  8  1  0  0  0  0
  8  9  2  0  0  0  0
  9 10  1  0  0  0  0
  9 11  1  0  0  0  0
 11 12  2  0  0  0  0
 12 13  1  0  0  0  0
  3 14  2  0  0  0  0
 14 15  1  0  0  0  0
 15 20  1  0  0  0  0
 15 16  2  0  0  0  0
 16 17  1  0  0  0  0
 17 18  2  0  0  0  0
 18 19  1  0  0  0  0
 19 20  2  0  0  0  0
M  END
> <JC_XSMILES>
CN1C(N=NC2=CC=C(C)C=C2C)=NC3=CC=CC=C13

> <GNF-Pf identifier>
GNF-Pf-4229

> <PF proliferation inhibition 3D7 EC50 uM>
0.0875

> <W2 Pf proliferation inhibition EC50 uM >
0.02408

> <Huh7 cytotox for Pf inhibitiors CC50 uM>
3.6

> <Powder data?>
Yes

> <IFI value>
0.193548387

> <Salt>
No salt

> <Equiv of salt>
0

$$$$

  -OEChem-06281415292D

 32 33  0     0  0  0  0  0  0999 V2000
   -0.0004   -2.9878    0.0000 C   0  0  0  0  0  0  0  0  0  0  0  0
    0.8628   -3.4927    0.0000 C   0  0  0  0  0  0  0  0  0  0  0  0
    1.7316   -2.9975    0.0000 N   0  0  0  0  0  0  0  0  0  0  0  0
    2.5948   -3.5024    0.0000 C   0  0  0  0  0  0  0  0  0  0  0  0
    2.5892   -4.5024    0.0000 C   0  0  0  0  0  0  0  0  0  0  0  0
    1.7373   -1.9975    0.0000 C   0  0  0  0  0  0  0  0  0  0  0  0
    2.6061   -1.5024    0.0000 C   0  0  0  0  0  0  0  0  0  0  0  0
    3.4693   -2.0073    0.0000 C   0  0  0  0  0  0  0  0  0  0  0  0
    4.3381   -1.5121    0.0000 N   0  0  0  0  0  0  0  0  0  0  0  0
    4.3437   -0.5122    0.0000 C   0  0  0  0  0  0  0  0  0  0  0  0
    3.4805   -0.0073    0.0000 C   0  0  0  0  0  0  0  0  0  0  0  0
    2.6039   -0.5053    0.0000 C   0  0  0  0  0  0  0  0  0  0  0  0
    1.7371   -0.0000    0.0000 C   0  0  0  0  0  0  0  0  0  0  0  0
    0.8707   -0.4993    0.0000 C   0  0  0  0  0  0  0  0  0  0  0  0
    0.0000    0.0000    0.0000 C   0  0  0  0  0  0  0  0  0  0  0  0
   -0.8653   -0.5013    0.0000 C   0  0  0  0  0  0  0  0  0  0  0  0
   -0.8638   -1.5013    0.0000 C   0  0  0  0  0  0  0  0  0  0  0  0
   -0.0000    1.0089    0.0000 C   0  0  0  0  0  0  0  0  0  0  0  0
    0.8707    1.5185    0.0000 C   0  0  0  0  0  0  0  0  0  0  0  0
    1.7414    1.0089    0.0000 C   0  0  0  0  0  0  0  0  0  0  0  0
    2.6125    1.5125    0.0000 N   0  0  0  0  0  0  0  0  0  0  0  0
    3.4848    1.0014    0.0000 C   0  0  0  0  0  0  0  0  0  0  0  0
    4.3535    1.4968    0.0000 O   0  0  0  0  0  0  0  0  0  0  0  0
    5.2013   -2.0170    0.0000 C   0  0  0  0  0  0  0  0  0  0  0  0
    5.1957   -3.0170    0.0000 S   0  0  0  0  0  0  0  0  0  0  0  0
    6.0701   -1.5219    0.0000 N   0  0  0  0  0  0  0  0  0  0  0  0
    6.9333   -2.0267    0.0000 C   0  0  0  0  0  0  0  0  0  0  0  0
    7.8021   -1.5316    0.0000 C   0  0  0  0  0  0  0  0  0  0  0  0
    8.6653   -2.0364    0.0000 C   0  0  0  0  0  0  0  0  0  0  0  0
    9.5342   -1.5413    0.0000 N   0  0  0  0  0  0  0  0  0  0  0  0
    9.5398   -0.5413    0.0000 C   0  0  0  0  0  0  0  0  0  0  0  0
   10.3974   -2.0462    0.0000 C   0  0  0  0  0  0  0  0  0  0  0  0
  1  2  1  0  0  0  0
  2  3  1  0  0  0  0
  3  4  1  0  0  0  0
  4  5  1  0  0  0  0
  3  6  1  0  0  0  0
  6  7  1  0  0  0  0
  7  8  1  0  0  0  0
  8  9  1  0  0  0  0
  9 10  1  0  0  0  0
 10 11  1  0  0  0  0
 11 22  1  0  0  0  0
 11 12  2  0  0  0  0
 12 13  1  0  0  0  0
 13 20  1  0  0  0  0
 13 14  2  0  0  0  0
 14 15  1  0  0  0  0
 15 16  1  0  0  0  0
 16 17  1  0  0  0  0
 15 18  2  0  0  0  0
 18 19  1  0  0  0  0
 19 20  2  0  0  0  0
 20 21  1  0  0  0  0
 21 22  1  0  0  0  0
 22 23  2  0  0  0  0
  9 24  1  0  0  0  0
 24 25  2  0  0  0  0
 24 26  1  0  0  0  0
 26 27  1  0  0  0  0
 27 28  1  0  0  0  0
 28 29  1  0  0  0  0
 29 30  1  0  0  0  0
 30 31  1  0  0  0  0
 30 32  1  0  0  0  0
M  END
> <JC_XSMILES>
CCN(CC)CCCN(CC1=CC2=CC(CC)=CC=C2NC1=O)C(=S)NCCCN(C)C

> <GNF-Pf identifier>
GNF-Pf-4236

> <PF proliferation inhibition 3D7 EC50 uM>
2.039

> <W2 Pf proliferation inhibition EC50 uM >
0.664

> <Huh7 cytotox for Pf inhibitiors CC50 uM>
>100

> <Powder data?>
Yes

> <IFI value>
0.027272727

> <Salt>
No salt

> <Equiv of salt>
0

$$$$

  -OEChem-06281415292D

 26 29  0     0  0  0  0  0  0999 V2000
    7.8064   -0.4970    0.0000 F   0  0  0  0  0  0  0  0  0  0  0  0
    6.9424    0.0065    0.0000 C   0  0  0  0  0  0  0  0  0  0  0  0
    6.0713   -0.4951    0.0000 C   0  0  0  0  0  0  0  0  0  0  0  0
    5.2073    0.0084    0.0000 C   0  0  0  0  0  0  0  0  0  0  0  0
    5.2056    1.0084    0.0000 C   0  0  0  0  0  0  0  0  0  0  0  0
    4.3394    1.5082    0.0000 N   0  0  0  0  0  0  0  0  0  0  0  0
    3.4735    1.0079    0.0000 C   0  0  0  0  0  0  0  0  0  0  0  0
    3.4748    0.0023    0.0000 N   0  0  0  0  0  0  0  0  0  0  0  0
    2.6038   -0.4989    0.0000 C   0  0  0  0  0  0  0  0  0  0  0  0
    2.6037   -1.4989    0.0000 N   0  0  0  0  0  0  0  0  0  0  0  0
    3.4697   -1.9990    0.0000 C   0  0  0  0  0  0  0  0  0  0  0  0
    3.4696   -2.9990    0.0000 C   0  0  0  0  0  0  0  0  0  0  0  0
    4.3416   -3.4991    0.0000 C   0  0  0  0  0  0  0  0  0  0  0  0
    4.3416   -4.4991    0.0000 C   0  0  0  0  0  0  0  0  0  0  0  0
    3.4784   -5.0041    0.0000 C   0  0  0  0  0  0  0  0  0  0  0  0
    2.6065   -4.5040    0.0000 C   0  0  0  0  0  0  0  0  0  0  0  0
    2.5976   -3.4989    0.0000 C   0  0  0  0  0  0  0  0  0  0  0  0
    1.7371    0.0000    0.0000 C   0  0  0  0  0  0  0  0  0  0  0  0
    0.8679   -0.4977    0.0000 C   0  0  0  0  0  0  0  0  0  0  0  0
    0.0000    0.0000    0.0000 C   0  0  0  0  0  0  0  0  0  0  0  0
   -0.0000    1.0056    0.0000 C   0  0  0  0  0  0  0  0  0  0  0  0
    0.8679    1.5135    0.0000 C   0  0  0  0  0  0  0  0  0  0  0  0
    1.7358    1.0056    0.0000 C   0  0  0  0  0  0  0  0  0  0  0  0
    2.6012    1.5123    0.0000 N   0  0  0  0  0  0  0  0  0  0  0  0
    6.0767    1.5101    0.0000 C   0  0  0  0  0  0  0  0  0  0  0  0
    6.9495    1.0116    0.0000 C   0  0  0  0  0  0  0  0  0  0  0  0
  1  2  1  0  0  0  0
  2 26  1  0  0  0  0
  2  3  2  0  0  0  0
  3  4  1  0  0  0  0
  4  5  2  0  0  0  0
  5  6  1  0  0  0  0
  6  7  1  0  0  0  0
  7 24  1  0  0  0  0
  7  8  2  0  0  0  0
  8  9  1  0  0  0  0
  9 10  1  0  0  0  0
 10 11  1  0  0  0  0
 11 12  1  0  0  0  0
 12 17  1  0  0  0  0
 12 13  2  0  0  0  0
 13 14  1  0  0  0  0
 14 15  2  0  0  0  0
 15 16  1  0  0  0  0
 16 17  2  0  0  0  0
  9 18  2  0  0  0  0
 18 23  1  0  0  0  0
 18 19  1  0  0  0  0
 19 20  2  0  0  0  0
 20 21  1  0  0  0  0
 21 22  2  0  0  0  0
 22 23  1  0  0  0  0
 23 24  2  0  0  0  0
  5 25  1  0  0  0  0
 25 26  2  0  0  0  0
M  END
> <JC_XSMILES>
FC1=CC=C(NC2=NC(NCC3=CC=CC=C3)=C4C=CC=CC4=N2)C=C1

> <GNF-Pf identifier>
GNF-Pf-4243

> <PF proliferation inhibition 3D7 EC50 uM>
0.0755

> <W2 Pf proliferation inhibition EC50 uM >
0.0586

> <Huh7 cytotox for Pf inhibitiors CC50 uM>
8.87

> <Powder data?>
Yes

> <IFI value>
0.095238095

> <Salt>
No salt

> <Equiv of salt>
0

$$$$

  -OEChem-06281415292D

 39 43  0     1  0  0  0  0  0999 V2000
    6.0589   -3.5218    0.0000 C   0  0  0  0  0  0  0  0  0  0  0  0
    5.1957   -3.0170    0.0000 C   0  0  0  0  0  0  0  0  0  0  0  0
    4.3269   -3.5121    0.0000 C   0  0  0  0  0  0  0  0  0  0  0  0
    5.2013   -2.0170    0.0000 C   0  0  0  0  0  0  0  0  0  0  0  0
    4.3381   -1.5121    0.0000 O   0  0  0  0  0  0  0  0  0  0  0  0
    4.3437   -0.5122    0.0000 C   0  0  0  0  0  0  0  0  0  0  0  0
    5.2125   -0.0170    0.0000 O   0  0  0  0  0  0  0  0  0  0  0  0
    3.4805   -0.0073    0.0000 C   0  0  0  0  0  0  0  0  0  0  0  0
    3.4848    1.0014    0.0000 C   0  0  0  0  0  0  0  0  0  0  0  0
    4.3535    1.4968    0.0000 C   0  0  0  0  0  0  0  0  0  0  0  0
    2.6125    1.5125    0.0000 N   0  0  0  0  0  0  0  0  0  0  0  0
    1.7414    1.0089    0.0000 C   0  0  0  0  0  0  0  0  0  0  0  0
    1.7371   -0.0000    0.0000 C   0  0  0  0  0  0  0  0  0  0  0  0
    2.6039   -0.5053    0.0000 C   0  0  3  0  0  0  0  0  0  0  0  0
    2.5983   -1.5053    0.0000 C   0  0  0  0  0  0  0  0  0  0  0  0
    3.4675   -2.0102    0.0000 C   0  0  0  0  0  0  0  0  0  0  0  0
    3.4620   -3.0102    0.0000 C   0  0  0  0  0  0  0  0  0  0  0  0
    2.5961   -3.5104    0.0000 C   0  0  0  0  0  0  0  0  0  0  0  0
    2.5949   -4.5104    0.0000 O   0  0  0  0  0  0  0  0  0  0  0  0
    3.4604   -5.0115    0.0000 C   0  0  0  0  0  0  0  0  0  0  0  0
    3.4592   -6.0115    0.0000 C   0  0  0  0  0  0  0  0  0  0  0  0
    4.3306   -6.5125    0.0000 C   0  0  0  0  0  0  0  0  0  0  0  0
    4.3295   -7.5125    0.0000 C   0  0  0  0  0  0  0  0  0  0  0  0
    3.4658   -8.0166    0.0000 C   0  0  0  0  0  0  0  0  0  0  0  0
    2.5943   -7.5155    0.0000 C   0  0  0  0  0  0  0  0  0  0  0  0
    2.5866   -6.5104    0.0000 C   0  0  0  0  0  0  0  0  0  0  0  0
    1.7269   -3.0056    0.0000 C   0  0  0  0  0  0  0  0  0  0  0  0
    1.7236   -2.0004    0.0000 C   0  0  0  0  0  0  0  0  0  0  0  0
    0.8707   -0.4993    0.0000 C   0  0  0  0  0  0  0  0  0  0  0  0
    0.8718   -1.4993    0.0000 O   0  0  0  0  0  0  0  0  0  0  0  0
    0.0000    0.0000    0.0000 C   0  0  0  0  0  0  0  0  0  0  0  0
    0.0000    1.0089    0.0000 C   0  0  3  0  0  0  0  0  0  0  0  0
    0.8707    1.5185    0.0000 C   0  0  0  0  0  0  0  0  0  0  0  0
   -0.8675    1.5063    0.0000 C   0  0  0  0  0  0  0  0  0  0  0  0
   -1.7350    0.9986    0.0000 C   0  0  0  0  0  0  0  0  0  0  0  0
   -2.6026    1.4960    0.0000 C   0  0  0  0  0  0  0  0  0  0  0  0
   -2.6114    2.4960    0.0000 C   0  0  0  0  0  0  0  0  0  0  0  0
   -1.7439    3.0037    0.0000 C   0  0  0  0  0  0  0  0  0  0  0  0
   -0.8675    2.5115    0.0000 C   0  0  0  0  0  0  0  0  0  0  0  0
  1  2  1  0  0  0  0
  2  3  1  0  0  0  0
  2  4  1  0  0  0  0
  4  5  1  0  0  0  0
  5  6  1  0  0  0  0
  6  7  2  0  0  0  0
  6  8  1  0  0  0  0
  8 14  1  0  0  0  0
  8  9  2  0  0  0  0
  9 10  1  0  0  0  0
  9 11  1  0  0  0  0
 11 12  1  0  0  0  0
 12 33  1  0  0  0  0
 12 13  2  0  0  0  0
 13 14  1  0  0  0  0
 14 15  1  0  0  0  0
 15 28  1  0  0  0  0
 15 16  2  0  0  0  0
 16 17  1  0  0  0  0
 17 18  2  0  0  0  0
 18 19  1  0  0  0  0
 19 20  1  0  0  0  0
 20 21  1  0  0  0  0
 21 26  1  0  0  0  0
 21 22  2  0  0  0  0
 22 23  1  0  0  0  0
 23 24  2  0  0  0  0
 24 25  1  0  0  0  0
 25 26  2  0  0  0  0
 18 27  1  0  0  0  0
 27 28  2  0  0  0  0
 13 29  1  0  0  0  0
 29 30  2  0  0  0  0
 29 31  1  0  0  0  0
 31 32  1  0  0  0  0
 32 33  1  0  0  0  0
 32 34  1  0  0  0  0
 34 39  1  0  0  0  0
 34 35  2  0  0  0  0
 35 36  1  0  0  0  0
 36 37  2  0  0  0  0
 37 38  1  0  0  0  0
 38 39  2  0  0  0  0
M  END
> <JC_XSMILES>
CC(C)COC(=O)C1=C(C)NC2=C(C1C3=CC=C(OCC4=CC=CC=C4)C=C3)C(=O)CC(C2)C5=CC=CC=C5

> <GNF-Pf identifier>
GNF-Pf-4245

> <PF proliferation inhibition 3D7 EC50 uM>
0.961

> <W2 Pf proliferation inhibition EC50 uM >
0.659

> <Huh7 cytotox for Pf inhibitiors CC50 uM>
>100

> <Powder data?>
Yes

> <IFI value>
0.035294118

> <Salt>
No salt

> <Equiv of salt>
0

$$$$

  -OEChem-06281415292D

 27 29  0     0  0  0  0  0  0999 V2000
    2.2648    1.2596    0.0000 C   0  0  0  0  0  0  0  0  0  0  0  0
    1.3133    0.9519    0.0000 N   0  0  0  0  0  0  0  0  0  0  0  0
    0.5008    1.5428    0.0000 N   0  0  0  0  0  0  0  0  0  0  0  0
   -0.3065    0.9519    0.0000 C   0  0  0  0  0  0  0  0  0  0  0  0
    0.0000    0.0000    0.0000 C   0  0  0  0  0  0  0  0  0  0  0  0
    1.0015    0.0000    0.0000 C   0  0  0  0  0  0  0  0  0  0  0  0
    1.5883   -0.8097    0.0000 N   0  0  0  0  0  0  0  0  0  0  0  0
    2.5830   -0.7064    0.0000 C   0  0  0  0  0  0  0  0  0  0  0  0
    2.9908    0.2067    0.0000 O   0  0  0  0  0  0  0  0  0  0  0  0
    3.1698   -1.5161    0.0000 N   0  0  0  0  0  0  0  0  0  0  0  0
    4.1644   -1.4127    0.0000 C   0  0  0  0  0  0  0  0  0  0  0  0
    4.5717   -0.4937    0.0000 C   0  0  0  0  0  0  0  0  0  0  0  0
    5.5663   -0.3903    0.0000 C   0  0  0  0  0  0  0  0  0  0  0  0
    6.1579   -1.1966    0.0000 C   0  0  0  0  0  0  0  0  0  0  0  0
    5.7507   -2.1156    0.0000 C   0  0  0  0  0  0  0  0  0  0  0  0
    4.7519   -2.2284    0.0000 C   0  0  0  0  0  0  0  0  0  0  0  0
   -0.5889   -0.8082    0.0000 C   0  0  0  0  0  0  0  0  0  0  0  0
   -0.1785   -1.7259    0.0000 C   0  0  0  0  0  0  0  0  0  0  0  0
   -0.7674   -2.5342    0.0000 C   0  0  0  0  0  0  0  0  0  0  0  0
   -1.7624   -2.4341    0.0000 C   0  0  0  0  0  0  0  0  0  0  0  0
   -2.3477   -3.2449    0.0000 F   0  0  0  0  0  0  0  0  0  0  0  0
   -2.1727   -1.5165    0.0000 C   0  0  0  0  0  0  0  0  0  0  0  0
   -1.5880   -0.6989    0.0000 C   0  0  0  0  0  0  0  0  0  0  0  0
   -1.2577    1.2605    0.0000 C   0  0  0  0  0  0  0  0  0  0  0  0
   -1.5663    0.3093    0.0000 F   0  0  0  0  0  0  0  0  0  0  0  0
   -0.9491    2.2117    0.0000 F   0  0  0  0  0  0  0  0  0  0  0  0
   -2.2089    1.5691    0.0000 F   0  0  0  0  0  0  0  0  0  0  0  0
  1  2  1  0  0  0  0
  2  6  1  0  0  0  0
  2  3  1  0  0  0  0
  3  4  2  0  0  0  0
  4  5  1  0  0  0  0
  5  6  2  0  0  0  0
  6  7  1  0  0  0  0
  7  8  1  0  0  0  0
  8  9  2  0  0  0  0
  8 10  1  0  0  0  0
 10 11  1  0  0  0  0
 11 16  1  0  0  0  0
 11 12  2  0  0  0  0
 12 13  1  0  0  0  0
 13 14  2  0  0  0  0
 14 15  1  0  0  0  0
 15 16  2  0  0  0  0
  5 17  1  0  0  0  0
 17 23  1  0  0  0  0
 17 18  2  0  0  0  0
 18 19  1  0  0  0  0
 19 20  2  0  0  0  0
 20 21  1  0  0  0  0
 20 22  1  0  0  0  0
 22 23  2  0  0  0  0
  4 24  1  0  0  0  0
 24 25  1  0  0  0  0
 24 26  1  0  0  0  0
 24 27  1  0  0  0  0
M  END
> <JC_XSMILES>
CN1N=C(C(=C1NC(=O)NC2=CC=CC=C2)C3=CC=C(F)C=C3)C(F)(F)F

> <GNF-Pf identifier>
GNF-Pf-4260

> <PF proliferation inhibition 3D7 EC50 uM>
0.392

> <W2 Pf proliferation inhibition EC50 uM >
0.353

> <Huh7 cytotox for Pf inhibitiors CC50 uM>
54.32

> <Powder data?>
Yes

> <IFI value>
0.041666667

> <Salt>
No salt

> <Equiv of salt>
0

$$$$

  -OEChem-06281415292D

 24 27  0     0  0  0  0  0  0999 V2000
    5.2365   -2.9856    0.0000 C   0  0  0  0  0  0  0  0  0  0  0  0
    5.2320   -1.9856    0.0000 C   0  0  0  0  0  0  0  0  0  0  0  0
    4.3637   -1.4895    0.0000 N   0  0  0  0  0  0  0  0  0  0  0  0
    4.3592   -0.4895    0.0000 C   0  0  0  0  0  0  0  0  0  0  0  0
    5.2278    0.0156    0.0000 C   0  0  0  0  0  0  0  0  0  0  0  0
    5.2220    1.0212    0.0000 C   0  0  0  0  0  0  0  0  0  0  0  0
    4.3474    1.5217    0.0000 N   0  0  0  0  0  0  0  0  0  0  0  0
    3.4844    1.0111    0.0000 C   0  0  0  0  0  0  0  0  0  0  0  0
    2.6094    1.5170    0.0000 C   0  0  0  0  0  0  0  0  0  0  0  0
    1.7412    1.0087    0.0000 C   0  0  0  0  0  0  0  0  0  0  0  0
    0.8707    1.5182    0.0000 C   0  0  0  0  0  0  0  0  0  0  0  0
    0.0000    1.0087    0.0000 C   0  0  0  0  0  0  0  0  0  0  0  0
    0.0000    0.0000    0.0000 C   0  0  0  0  0  0  0  0  0  0  0  0
    0.8707   -0.4992    0.0000 C   0  0  0  0  0  0  0  0  0  0  0  0
    1.7425   -0.0000    0.0000 C   0  0  0  0  0  0  0  0  0  0  0  0
    2.6119   -0.5005    0.0000 C   0  0  0  0  0  0  0  0  0  0  0  0
    3.4902    0.0054    0.0000 C   0  0  0  0  0  0  0  0  0  0  0  0
    6.1048   -3.4817    0.0000 C   0  0  0  0  0  0  0  0  0  0  0  0
    6.1093   -4.4816    0.0000 N   0  0  0  0  0  0  0  0  0  0  0  0
    6.9790   -4.9752    0.0000 C   0  0  0  0  0  0  0  0  0  0  0  0
    6.9835   -5.9804    0.0000 C   0  0  0  0  0  0  0  0  0  0  0  0
    6.1183   -6.4920    0.0000 O   0  0  0  0  0  0  0  0  0  0  0  0
    5.2486   -5.9882    0.0000 C   0  0  0  0  0  0  0  0  0  0  0  0
    5.2440   -4.9831    0.0000 C   0  0  0  0  0  0  0  0  0  0  0  0
  1  2  1  0  0  0  0
  2  3  1  0  0  0  0
  3  4  1  0  0  0  0
  4 17  1  0  0  0  0
  4  5  2  0  0  0  0
  5  6  1  0  0  0  0
  6  7  2  0  0  0  0
  7  8  1  0  0  0  0
  8 17  1  0  0  0  0
  8  9  2  0  0  0  0
  9 10  1  0  0  0  0
 10 15  1  0  0  0  0
 10 11  2  0  0  0  0
 11 12  1  0  0  0  0
 12 13  2  0  0  0  0
 13 14  1  0  0  0  0
 14 15  2  0  0  0  0
 15 16  1  0  0  0  0
 16 17  2  0  0  0  0
  1 18  1  0  0  0  0
 18 19  1  0  0  0  0
 19 24  1  0  0  0  0
 19 20  1  0  0  0  0
 20 21  1  0  0  0  0
 21 22  1  0  0  0  0
 22 23  1  0  0  0  0
 23 24  1  0  0  0  0
M  END
> <JC_XSMILES>
C(CNC1=CC=NC2=CC3=CC=CC=C3C=C12)CN4CCOCC4

> <GNF-Pf identifier>
GNF-Pf-431

> <PF proliferation inhibition 3D7 EC50 uM>
0.0443

> <W2 Pf proliferation inhibition EC50 uM >
0.0835

> <Huh7 cytotox for Pf inhibitiors CC50 uM>
0.598

> <Powder data?>
Yes

> <IFI value>
0.127272727

> <Salt>
No salt

> <Equiv of salt>
0

$$$$

  -OEChem-06281415292D

 34 38  0     1  0  0  0  0  0999 V2000
    7.6047   -4.6421    0.0000 C   0  0  0  0  0  0  0  0  0  0  0  0
    6.6653   -4.2995    0.0000 C   0  0  0  0  0  0  0  0  0  0  0  0
    6.4923   -3.3145    0.0000 C   0  0  1  0  0  0  0  0  0  0  0  0
    7.4923   -3.3142    0.0000 H   0  0  0  0  0  0  0  0  0  0  0  0
    5.1730   -3.7923    0.0000 C   0  0  0  0  0  0  0  0  0  0  0  0
    4.0942   -2.8950    0.0000 N   0  0  3  0  0  0  0  0  0  0  0  0
    5.0595   -3.3753    0.0000 C   0  0  0  0  0  0  0  0  0  0  0  0
    6.3693   -2.8710    0.0000 C   0  0  0  0  0  0  0  0  0  0  0  0
    6.7329   -1.9394    0.0000 C   0  0  1  0  0  0  0  0  0  0  0  0
    7.6731   -1.5989    0.0000 H   0  0  0  0  0  0  0  0  0  0  0  0
    5.6676   -1.0373    0.0000 C   0  0  0  0  0  0  0  0  0  0  0  0
    4.3483   -1.5150    0.0000 C   0  0  2  0  0  0  0  0  0  0  0  0
    4.1782   -0.5296    0.0000 H   0  0  0  0  0  0  0  0  0  0  0  0
    2.5983   -1.5053    0.0000 C   0  0  1  0  0  0  0  0  0  0  0  0
    1.5983   -1.4997    0.0000 H   0  0  0  0  0  0  0  0  0  0  0  0
    2.5927   -2.5053    0.0000 O   0  0  0  0  0  0  0  0  0  0  0  0
    1.7240   -3.0004    0.0000 C   0  0  0  0  0  0  0  0  0  0  0  0
    0.8607   -2.4956    0.0000 O   0  0  0  0  0  0  0  0  0  0  0  0
    1.7184   -4.0004    0.0000 C   0  0  0  0  0  0  0  0  0  0  0  0
    0.8496   -4.4956    0.0000 C   0  0  0  0  0  0  0  0  0  0  0  0
   -0.0636   -4.0839    0.0000 C   0  0  0  0  0  0  0  0  0  0  0  0
   -0.7389   -4.8235    0.0000 C   0  0  0  0  0  0  0  0  0  0  0  0
   -0.2427   -5.6917    0.0000 C   0  0  0  0  0  0  0  0  0  0  0  0
    0.7380   -5.4940    0.0000 S   0  0  0  0  0  0  0  0  0  0  0  0
    2.6039   -0.5053    0.0000 C   0  0  0  0  0  0  0  0  0  0  0  0
    3.4805   -0.0073    0.0000 C   0  0  0  0  0  0  0  0  0  0  0  0
    3.4848    1.0014    0.0000 C   0  0  0  0  0  0  0  0  0  0  0  0
    2.6125    1.5125    0.0000 N   0  0  0  0  0  0  0  0  0  0  0  0
    1.7414    1.0089    0.0000 C   0  0  0  0  0  0  0  0  0  0  0  0
    0.8707    1.5185    0.0000 C   0  0  0  0  0  0  0  0  0  0  0  0
    0.0000    1.0089    0.0000 C   0  0  0  0  0  0  0  0  0  0  0  0
    0.0000    0.0000    0.0000 C   0  0  0  0  0  0  0  0  0  0  0  0
    0.8707   -0.4993    0.0000 C   0  0  0  0  0  0  0  0  0  0  0  0
    1.7371    0.0000    0.0000 C   0  0  0  0  0  0  0  0  0  0  0  0
  1  2  2  0  0  0  0
  2  3  1  0  0  0  0
  3  4  1  6  0  0  0
  3  9  1  0  0  0  0
  3  5  1  0  0  0  0
  5  6  1  0  0  0  0
  6 12  1  0  0  0  0
  6  7  1  0  0  0  0
  7  8  1  0  0  0  0
  8  9  1  0  0  0  0
  9 10  1  6  0  0  0
  9 11  1  0  0  0  0
 11 12  1  0  0  0  0
 12 13  1  6  0  0  0
 12 14  1  0  0  0  0
 14 15  1  6  0  0  0
 14 16  1  0  0  0  0
 16 17  1  0  0  0  0
 17 18  2  0  0  0  0
 17 19  1  0  0  0  0
 19 20  1  0  0  0  0
 20 24  1  0  0  0  0
 20 21  2  0  0  0  0
 21 22  1  0  0  0  0
 22 23  2  0  0  0  0
 23 24  1  0  0  0  0
 14 25  1  0  0  0  0
 25 34  1  0  0  0  0
 25 26  2  0  0  0  0
 26 27  1  0  0  0  0
 27 28  2  0  0  0  0
 28 29  1  0  0  0  0
 29 34  1  0  0  0  0
 29 30  2  0  0  0  0
 30 31  1  0  0  0  0
 31 32  2  0  0  0  0
 32 33  1  0  0  0  0
 33 34  2  0  0  0  0
M  END
> <JC_XSMILES>
C=C[C@H]1CN2CC[C@H]1C[C@@H]2[C@@H](OC(=O)CC3=CC=CS3)C4=CC=NC5=CC=CC=C45

> <GNF-Pf identifier>
GNF-Pf-4511

> <PF proliferation inhibition 3D7 EC50 uM>
0.0622

> <W2 Pf proliferation inhibition EC50 uM >
0.0466

> <Huh7 cytotox for Pf inhibitiors CC50 uM>
>10

> <Powder data?>
No

> <IFI value>
0.025

> <Salt>
No salt

> <Equiv of salt>
0

$$$$

  -OEChem-06281415292D

 35 38  0     0  0  0  0  0  0999 V2000
    1.7321    5.0104    0.0000 C   0  0  0  0  0  0  0  0  0  0  0  0
    0.8660    4.5104    0.0000 C   0  0  0  0  0  0  0  0  0  0  0  0
    0.8660    3.5104    0.0000 C   0  0  0  0  0  0  0  0  0  0  0  0
    1.7321    3.0104    0.0000 C   0  0  0  0  0  0  0  0  0  0  0  0
    2.5981    3.5104    0.0000 C   0  0  0  0  0  0  0  0  0  0  0  0
   -0.0000    3.0104    0.0000 C   0  0  0  0  0  0  0  0  0  0  0  0
   -0.0000    2.0104    0.0000 N   0  0  0  0  0  0  0  0  0  0  0  0
   -0.8675    1.5027    0.0000 C   0  0  0  0  0  0  0  0  0  0  0  0
   -0.8675    0.4975    0.0000 C   0  0  0  0  0  0  0  0  0  0  0  0
    0.0000    0.0000    0.0000 C   0  0  0  0  0  0  0  0  0  0  0  0
    0.6420   -0.7667    0.0000 O   0  0  0  0  0  0  0  0  0  0  0  0
    0.8675    0.4975    0.0000 C   0  0  0  0  0  0  0  0  0  0  0  0
    0.8675    1.5027    0.0000 C   0  0  0  0  0  0  0  0  0  0  0  0
   -0.6420   -0.7667    0.0000 C   0  0  0  0  0  0  0  0  0  0  0  0
   -0.2985   -1.7120    0.0000 C   0  0  0  0  0  0  0  0  0  0  0  0
   -0.9408   -2.4859    0.0000 C   0  0  0  0  0  0  0  0  0  0  0  0
   -1.9301   -2.3049    0.0000 C   0  0  0  0  0  0  0  0  0  0  0  0
   -2.7240   -2.9245    0.0000 O   0  0  0  0  0  0  0  0  0  0  0  0
   -3.5587   -2.3611    0.0000 C   0  0  0  0  0  0  0  0  0  0  0  0
   -3.2806   -1.3931    0.0000 C   0  0  0  0  0  0  0  0  0  0  0  0
   -2.2740   -1.3585    0.0000 C   0  0  0  0  0  0  0  0  0  0  0  0
   -1.6279   -0.5953    0.0000 C   0  0  0  0  0  0  0  0  0  0  0  0
   -4.4985   -2.7027    0.0000 C   0  0  0  0  0  0  0  0  0  0  0  0
   -5.2643   -2.0596    0.0000 O   0  0  0  0  0  0  0  0  0  0  0  0
   -4.6726   -3.6874    0.0000 N   0  0  0  0  0  0  0  0  0  0  0  0
   -5.6124   -4.0291    0.0000 C   0  0  0  0  0  0  0  0  0  0  0  0
   -6.3802   -3.3804    0.0000 C   0  0  0  0  0  0  0  0  0  0  0  0
   -7.3201   -3.7219    0.0000 C   0  0  0  0  0  0  0  0  0  0  0  0
   -7.4999   -4.7057    0.0000 C   0  0  0  0  0  0  0  0  0  0  0  0
   -8.4413   -5.0432    0.0000 O   0  0  0  0  0  0  0  0  0  0  0  0
   -8.6197   -6.0271    0.0000 C   0  0  0  0  0  0  0  0  0  0  0  0
   -6.7321   -5.3544    0.0000 C   0  0  0  0  0  0  0  0  0  0  0  0
   -6.9120   -6.3381    0.0000 O   0  0  0  0  0  0  0  0  0  0  0  0
   -6.1500   -6.9857    0.0000 C   0  0  0  0  0  0  0  0  0  0  0  0
   -5.7844   -5.0194    0.0000 C   0  0  0  0  0  0  0  0  0  0  0  0
  1  2  1  0  0  0  0
  2  3  1  0  0  0  0
  3  4  1  0  0  0  0
  4  5  1  0  0  0  0
  3  6  1  0  0  0  0
  6  7  1  0  0  0  0
  7 13  1  0  0  0  0
  7  8  1  0  0  0  0
  8  9  1  0  0  0  0
  9 10  1  0  0  0  0
 10 11  1  0  0  0  0
 10 12  1  0  0  0  0
 12 13  1  0  0  0  0
 10 14  1  0  0  0  0
 14 22  1  0  0  0  0
 14 15  2  0  0  0  0
 15 16  1  0  0  0  0
 16 17  2  0  0  0  0
 17 21  1  0  0  0  0
 17 18  1  0  0  0  0
 18 19  1  0  0  0  0
 19 20  2  0  0  0  0
 20 21  1  0  0  0  0
 21 22  2  0  0  0  0
 19 23  1  0  0  0  0
 23 24  2  0  0  0  0
 23 25  1  0  0  0  0
 25 26  1  0  0  0  0
 26 35  1  0  0  0  0
 26 27  2  0  0  0  0
 27 28  1  0  0  0  0
 28 29  2  0  0  0  0
 29 30  1  0  0  0  0
 30 31  1  0  0  0  0
 29 32  1  0  0  0  0
 32 33  1  0  0  0  0
 33 34  1  0  0  0  0
 32 35  2  0  0  0  0
M  END
> <JC_XSMILES>
CCC(CC)CN1CCC(O)(CC1)C2=CC=C3OC(=CC3=C2)C(=O)NC4=CC=C(OC)C(OC)=C4

> <GNF-Pf identifier>
GNF-Pf-4573

> <PF proliferation inhibition 3D7 EC50 uM>
0.344

> <W2 Pf proliferation inhibition EC50 uM >
0.36

> <Huh7 cytotox for Pf inhibitiors CC50 uM>
>85.85

> <Powder data?>
Yes

> <IFI value>
0.034482759

> <Salt>
No salt

> <Equiv of salt>
0

$$$$

  -OEChem-06281415292D

 17 19  0     0  0  0  0  0  0999 V2000
    2.3337    3.0110    0.0000 O   0  0  0  0  0  0  0  0  0  0  0  0
    3.0029    2.2678    0.0000 C   0  0  0  0  0  0  0  0  0  0  0  0
    3.9810    2.4757    0.0000 N   0  0  0  0  0  0  0  0  0  0  0  0
    4.6579    1.7327    0.0000 C   0  0  0  0  0  0  0  0  0  0  0  0
    5.6412    1.9417    0.0000 C   0  0  0  0  0  0  0  0  0  0  0  0
    5.9475    2.8936    0.0000 C   0  0  0  0  0  0  0  0  0  0  0  0
    5.2805    3.6388    0.0000 C   0  0  0  0  0  0  0  0  0  0  0  0
    4.2973    3.4298    0.0000 C   0  0  0  0  0  0  0  0  0  0  0  0
    2.6938    1.3168    0.0000 N   0  0  0  0  0  0  0  0  0  0  0  0
    3.2858    0.5022    0.0000 N   0  0  0  0  0  0  0  0  0  0  0  0
    2.6938   -0.3126    0.0000 N   0  0  0  0  0  0  0  0  0  0  0  0
    1.7360   -0.0013    0.0000 C   0  0  0  0  0  0  0  0  0  0  0  0
    0.8680   -0.4979    0.0000 C   0  0  0  0  0  0  0  0  0  0  0  0
    0.0000    0.0000    0.0000 C   0  0  0  0  0  0  0  0  0  0  0  0
   -0.0000    1.0058    0.0000 C   0  0  0  0  0  0  0  0  0  0  0  0
    0.8680    1.5137    0.0000 C   0  0  0  0  0  0  0  0  0  0  0  0
    1.7360    1.0058    0.0000 C   0  0  0  0  0  0  0  0  0  0  0  0
  1  2  2  0  0  0  0
  2  3  1  0  0  0  0
  3  8  1  0  0  0  0
  3  4  1  0  0  0  0
  4  5  1  0  0  0  0
  5  6  1  0  0  0  0
  6  7  1  0  0  0  0
  7  8  1  0  0  0  0
  2  9  1  0  0  0  0
  9 17  1  0  0  0  0
  9 10  1  0  0  0  0
 10 11  2  0  0  0  0
 11 12  1  0  0  0  0
 12 17  1  0  0  0  0
 12 13  2  0  0  0  0
 13 14  1  0  0  0  0
 14 15  2  0  0  0  0
 15 16  1  0  0  0  0
 16 17  2  0  0  0  0
M  END
> <JC_XSMILES>
O=C(N1CCCCC1)N2N=NC3=CC=CC=C23

> <GNF-Pf identifier>
GNF-Pf-4609

> <PF proliferation inhibition 3D7 EC50 uM>
1.306

> <W2 Pf proliferation inhibition EC50 uM >
0.396

> <Huh7 cytotox for Pf inhibitiors CC50 uM>
>100

> <Powder data?>
Yes

> <IFI value>
0.033333333

> <Salt>
No salt

> <Equiv of salt>
0

$$$$

  -OEChem-06281415292D

 37 40  0     0  0  0  0  0  0999 V2000
   -0.0017    6.0151    0.0000 C   0  0  0  0  0  0  0  0  0  0  0  0
    0.8650    5.5164    0.0000 C   0  0  0  0  0  0  0  0  0  0  0  0
    1.7303    6.0177    0.0000 O   0  0  0  0  0  0  0  0  0  0  0  0
    2.5971    5.5190    0.0000 C   0  0  0  0  0  0  0  0  0  0  0  0
    3.4631    6.0191    0.0000 C   0  0  0  0  0  0  0  0  0  0  0  0
    4.3321    5.5241    0.0000 C   0  0  0  0  0  0  0  0  0  0  0  0
    4.3350    4.5189    0.0000 C   0  0  0  0  0  0  0  0  0  0  0  0
    3.4690    4.0087    0.0000 C   0  0  0  0  0  0  0  0  0  0  0  0
    2.6001    4.5138    0.0000 C   0  0  0  0  0  0  0  0  0  0  0  0
    1.7340    4.0138    0.0000 N   0  0  0  0  0  0  0  0  0  0  0  0
    1.7340    3.0138    0.0000 C   0  0  0  0  0  0  0  0  0  0  0  0
    2.6001    2.5138    0.0000 O   0  0  0  0  0  0  0  0  0  0  0  0
    0.8680    2.5138    0.0000 C   0  0  0  0  0  0  0  0  0  0  0  0
    0.8680    1.5138    0.0000 N   0  0  0  0  0  0  0  0  0  0  0  0
    0.0000    1.0058    0.0000 C   0  0  0  0  0  0  0  0  0  0  0  0
   -0.8675    1.5032    0.0000 O   0  0  0  0  0  0  0  0  0  0  0  0
    0.0000    0.0000    0.0000 N   0  0  0  0  0  0  0  0  0  0  0  0
   -0.8653   -0.5013    0.0000 C   0  0  0  0  0  0  0  0  0  0  0  0
   -0.8639   -1.5013    0.0000 C   0  0  0  0  0  0  0  0  0  0  0  0
    0.0089   -2.0000    0.0000 C   0  0  0  0  0  0  0  0  0  0  0  0
    0.0104   -3.0000    0.0000 C   0  0  0  0  0  0  0  0  0  0  0  0
   -0.8520   -3.5064    0.0000 C   0  0  0  0  0  0  0  0  0  0  0  0
   -1.7247   -3.0076    0.0000 C   0  0  0  0  0  0  0  0  0  0  0  0
   -1.7351   -2.0025    0.0000 C   0  0  0  0  0  0  0  0  0  0  0  0
    0.8680   -0.4978    0.0000 C   0  0  0  0  0  0  0  0  0  0  0  0
    0.8675   -1.4978    0.0000 O   0  0  0  0  0  0  0  0  0  0  0  0
    1.7360   -0.0012    0.0000 C   0  0  0  0  0  0  0  0  0  0  0  0
    1.7360    1.0058    0.0000 C   0  0  0  0  0  0  0  0  0  0  0  0
    2.6938    1.3169    0.0000 S   0  0  0  0  0  0  0  0  0  0  0  0
    3.2858    0.5023    0.0000 C   0  0  0  0  0  0  0  0  0  0  0  0
    2.6938   -0.3125    0.0000 C   0  0  0  0  0  0  0  0  0  0  0  0
    3.0028   -1.2636    0.0000 C   0  0  0  0  0  0  0  0  0  0  0  0
    4.2858    0.5024    0.0000 C   0  0  0  0  0  0  0  0  0  0  0  0
    4.7859   -0.3636    0.0000 O   0  0  0  0  0  0  0  0  0  0  0  0
    4.7858    1.3684    0.0000 N   0  0  0  0  0  0  0  0  0  0  0  0
    4.2857    2.2344    0.0000 C   0  0  0  0  0  0  0  0  0  0  0  0
    5.7858    1.3685    0.0000 C   0  0  0  0  0  0  0  0  0  0  0  0
  1  2  1  0  0  0  0
  2  3  1  0  0  0  0
  3  4  1  0  0  0  0
  4  9  1  0  0  0  0
  4  5  2  0  0  0  0
  5  6  1  0  0  0  0
  6  7  2  0  0  0  0
  7  8  1  0  0  0  0
  8  9  2  0  0  0  0
  9 10  1  0  0  0  0
 10 11  1  0  0  0  0
 11 12  2  0  0  0  0
 11 13  1  0  0  0  0
 13 14  1  0  0  0  0
 14 28  1  0  0  0  0
 14 15  1  0  0  0  0
 15 16  2  0  0  0  0
 15 17  1  0  0  0  0
 17 18  1  0  0  0  0
 18 19  1  0  0  0  0
 19 24  1  0  0  0  0
 19 20  2  0  0  0  0
 20 21  1  0  0  0  0
 21 22  2  0  0  0  0
 22 23  1  0  0  0  0
 23 24  2  0  0  0  0
 17 25  1  0  0  0  0
 25 26  2  0  0  0  0
 25 27  1  0  0  0  0
 27 31  1  0  0  0  0
 27 28  2  0  0  0  0
 28 29  1  0  0  0  0
 29 30  1  0  0  0  0
 30 31  2  0  0  0  0
 31 32  1  0  0  0  0
 30 33  1  0  0  0  0
 33 34  2  0  0  0  0
 33 35  1  0  0  0  0
 35 36  1  0  0  0  0
 35 37  1  0  0  0  0
M  END
> <JC_XSMILES>
CCOC1=CC=CC=C1NC(=O)CN2C(=O)N(CC3=CC=CC=C3)C(=O)C4=C2SC(=C4C)C(=O)N(C)C

> <GNF-Pf identifier>
GNF-Pf-4649

> <PF proliferation inhibition 3D7 EC50 uM>
0.883

> <W2 Pf proliferation inhibition EC50 uM >
0.377

> <Huh7 cytotox for Pf inhibitiors CC50 uM>
>100

> <Powder data?>
Yes

> <IFI value>
0.0625

> <Salt>
No salt

> <Equiv of salt>
0

$$$$

  -OEChem-06281415292D

 46 51  0     1  0  0  0  0  0999 V2000
   10.1610    2.1576    0.0000 C   0  0  0  0  0  0  0  0  0  0  0  0
    9.7448    1.2484    0.0000 O   0  0  0  0  0  0  0  0  0  0  0  0
    8.7492    1.1542    0.0000 C   0  0  0  0  0  0  0  0  0  0  0  0
    8.3356    0.2437    0.0000 C   0  0  0  0  0  0  0  0  0  0  0  0
    7.3349    0.1491    0.0000 C   0  0  0  0  0  0  0  0  0  0  0  0
    6.7478    0.9649    0.0000 C   0  0  0  0  0  0  0  0  0  0  0  0
    7.1715    1.8764    0.0000 C   0  0  0  0  0  0  0  0  0  0  0  0
    6.5946    2.6932    0.0000 O   0  0  0  0  0  0  0  0  0  0  0  0
    7.0135    3.6012    0.0000 C   0  0  0  0  0  0  0  0  0  0  0  0
    8.1723    1.9710    0.0000 C   0  0  0  0  0  0  0  0  0  0  0  0
    8.5898    2.8797    0.0000 O   0  0  0  0  0  0  0  0  0  0  0  0
    9.5855    2.9724    0.0000 C   0  0  0  0  0  0  0  0  0  0  0  0
    6.9213   -0.7614    0.0000 C   0  0  0  0  0  0  0  0  0  0  0  0
    7.5030   -1.5748    0.0000 O   0  0  0  0  0  0  0  0  0  0  0  0
    5.9260   -0.8585    0.0000 N   0  0  0  0  0  0  0  0  0  0  0  0
    5.2587   -0.1075    0.0000 N   0  0  0  0  0  0  0  0  0  0  0  0
    4.3437   -0.5122    0.0000 C   0  0  0  0  0  0  0  0  0  0  0  0
    4.4396   -1.5076    0.0000 C   0  0  0  0  0  0  0  0  0  0  0  0
    5.4179   -1.7217    0.0000 C   0  0  3  0  0  0  0  0  0  0  0  0
    5.8180   -2.6382    0.0000 C   0  0  0  0  0  0  0  0  0  0  0  0
    5.2189   -3.4453    0.0000 C   0  0  0  0  0  0  0  0  0  0  0  0
    5.6190   -4.3619    0.0000 C   0  0  0  0  0  0  0  0  0  0  0  0
    6.6121   -4.4794    0.0000 C   0  0  0  0  0  0  0  0  0  0  0  0
    7.2112   -3.6722    0.0000 C   0  0  0  0  0  0  0  0  0  0  0  0
    6.8172   -2.7475    0.0000 C   0  0  0  0  0  0  0  0  0  0  0  0
    8.2043   -3.7898    0.0000 N   0  3  0  0  0  0  0  0  0  0  0  0
    8.8026   -2.9886    0.0000 O   0  5  0  0  0  0  0  0  0  0  0  0
    8.5990   -4.7086    0.0000 O   0  0  0  0  0  0  0  0  0  0  0  0
    3.4805   -0.0073    0.0000 C   0  0  0  0  0  0  0  0  0  0  0  0
    2.6039   -0.5053    0.0000 C   0  0  0  0  0  0  0  0  0  0  0  0
    2.5983   -1.5053    0.0000 C   0  0  0  0  0  0  0  0  0  0  0  0
    3.4675   -2.0102    0.0000 C   0  0  0  0  0  0  0  0  0  0  0  0
    3.4620   -3.0102    0.0000 C   0  0  0  0  0  0  0  0  0  0  0  0
    2.5961   -3.5104    0.0000 C   0  0  0  0  0  0  0  0  0  0  0  0
    1.7269   -3.0056    0.0000 C   0  0  0  0  0  0  0  0  0  0  0  0
    1.7236   -2.0004    0.0000 C   0  0  0  0  0  0  0  0  0  0  0  0
    1.7371   -0.0000    0.0000 C   0  0  0  0  0  0  0  0  0  0  0  0
    0.8707   -0.4993    0.0000 C   0  0  0  0  0  0  0  0  0  0  0  0
    0.0000    0.0000    0.0000 C   0  0  0  0  0  0  0  0  0  0  0  0
   -0.8653   -0.5013    0.0000 Br  0  0  0  0  0  0  0  0  0  0  0  0
   -0.0000    1.0089    0.0000 C   0  0  0  0  0  0  0  0  0  0  0  0
    0.8707    1.5185    0.0000 C   0  0  0  0  0  0  0  0  0  0  0  0
    1.7414    1.0089    0.0000 C   0  0  0  0  0  0  0  0  0  0  0  0
    2.6125    1.5125    0.0000 N   0  0  0  0  0  0  0  0  0  0  0  0
    3.4848    1.0014    0.0000 C   0  0  0  0  0  0  0  0  0  0  0  0
    4.3535    1.4968    0.0000 O   0  0  0  0  0  0  0  0  0  0  0  0
  1  2  1  0  0  0  0
  2  3  1  0  0  0  0
  3 10  1  0  0  0  0
  3  4  2  0  0  0  0
  4  5  1  0  0  0  0
  5  6  2  0  0  0  0
  6  7  1  0  0  0  0
  7  8  1  0  0  0  0
  8  9  1  0  0  0  0
  7 10  2  0  0  0  0
 10 11  1  0  0  0  0
 11 12  1  0  0  0  0
  5 13  1  0  0  0  0
 13 14  2  0  0  0  0
 13 15  1  0  0  0  0
 15 19  1  0  0  0  0
 15 16  1  0  0  0  0
 16 17  2  0  0  0  0
 17 18  1  0  0  0  0
 18 19  1  0  0  0  0
 19 20  1  0  0  0  0
 20 25  1  0  0  0  0
 20 21  2  0  0  0  0
 21 22  1  0  0  0  0
 22 23  2  0  0  0  0
 23 24  1  0  0  0  0
 24 25  2  0  0  0  0
 24 26  1  0  0  0  0
 26 27  1  0  0  0  0
 26 28  2  0  0  0  0
 17 29  1  0  0  0  0
 29 45  1  0  0  0  0
 29 30  2  0  0  0  0
 30 31  1  0  0  0  0
 31 36  1  0  0  0  0
 31 32  2  0  0  0  0
 32 33  1  0  0  0  0
 33 34  2  0  0  0  0
 34 35  1  0  0  0  0
 35 36  2  0  0  0  0
 30 37  1  0  0  0  0
 37 43  1  0  0  0  0
 37 38  2  0  0  0  0
 38 39  1  0  0  0  0
 39 40  1  0  0  0  0
 39 41  2  0  0  0  0
 41 42  1  0  0  0  0
 42 43  2  0  0  0  0
 43 44  1  0  0  0  0
 44 45  1  0  0  0  0
 45 46  2  0  0  0  0
M  CHG  2  26   1  27  -1
M  END
> <JC_XSMILES>
COC1=CC(=CC(OC)=C1OC)C(=O)N2N=C(CC2C3=CC=CC(=C3)[N+]([O-])=O)C4=C(C5=CC=CC=C5)C6=CC(Br)=CC=C6NC4=O

> <GNF-Pf identifier>
GNF-Pf-4840

> <PF proliferation inhibition 3D7 EC50 uM>
0.362

> <W2 Pf proliferation inhibition EC50 uM >
0.2878

> <Huh7 cytotox for Pf inhibitiors CC50 uM>
>100

> <Powder data?>
Yes

> <IFI value>
0.011111111

> <Salt>
No salt

> <Equiv of salt>
0

$$$$

  -OEChem-06281415292D

 26 29  0     0  0  0  0  0  0999 V2000
    4.9673   -2.6838    0.0000 C   0  0  0  0  0  0  0  0  0  0  0  0
    5.2851   -1.7356    0.0000 C   0  0  0  0  0  0  0  0  0  0  0  0
    4.6229   -0.9863    0.0000 C   0  0  0  0  0  0  0  0  0  0  0  0
    3.6310   -1.1862    0.0000 C   0  0  0  0  0  0  0  0  0  0  0  0
    3.3132   -2.1344    0.0000 N   0  0  0  0  0  0  0  0  0  0  0  0
    3.9755   -2.8836    0.0000 C   0  0  0  0  0  0  0  0  0  0  0  0
    3.6577   -3.8318    0.0000 C   0  0  0  0  0  0  0  0  0  0  0  0
    4.3256   -4.5830    0.0000 C   0  0  0  0  0  0  0  0  0  0  0  0
    4.0079   -5.5312    0.0000 C   0  0  0  0  0  0  0  0  0  0  0  0
    3.0290   -5.7359    0.0000 C   0  0  0  0  0  0  0  0  0  0  0  0
    2.3611   -4.9847    0.0000 C   0  0  0  0  0  0  0  0  0  0  0  0
    2.6721   -4.0288    0.0000 C   0  0  0  0  0  0  0  0  0  0  0  0
    2.9631   -0.4326    0.0000 N   0  0  0  0  0  0  0  0  0  0  0  0
    1.9631   -0.4291    0.0000 C   0  0  0  0  0  0  0  0  0  0  0  0
    1.2916   -1.1750    0.0000 C   0  0  0  0  0  0  0  0  0  0  0  0
    0.3065   -0.9587    0.0000 C   0  0  0  0  0  0  0  0  0  0  0  0
    0.0000    0.0000    0.0000 C   0  0  0  0  0  0  0  0  0  0  0  0
    0.6786    0.7423    0.0000 C   0  0  0  0  0  0  0  0  0  0  0  0
    1.6566    0.5296    0.0000 C   0  0  0  0  0  0  0  0  0  0  0  0
    2.4666    1.1220    0.0000 N   0  0  0  0  0  0  0  0  0  0  0  0
    3.2835    0.5280    0.0000 C   0  0  0  0  0  0  0  0  0  0  0  0
    4.2719    0.7349    0.0000 C   0  0  0  0  0  0  0  0  0  0  0  0
    4.5871    1.6839    0.0000 C   0  0  0  0  0  0  0  0  0  0  0  0
    4.9022    2.6330    0.0000 N   0  0  0  0  0  0  0  0  0  0  0  0
    4.9434   -0.0258    0.0000 C   0  0  0  0  0  0  0  0  0  0  0  0
    5.9234    0.1734    0.0000 C   0  0  0  0  0  0  0  0  0  0  0  0
  1  2  1  0  0  0  0
  2  3  1  0  0  0  0
  3 25  1  0  0  0  0
  3  4  2  0  0  0  0
  4  5  1  0  0  0  0
  5  6  1  0  0  0  0
  6  7  1  0  0  0  0
  7 12  1  0  0  0  0
  7  8  2  0  0  0  0
  8  9  1  0  0  0  0
  9 10  2  0  0  0  0
 10 11  1  0  0  0  0
 11 12  2  0  0  0  0
  4 13  1  0  0  0  0
 13 21  1  0  0  0  0
 13 14  1  0  0  0  0
 14 19  1  0  0  0  0
 14 15  2  0  0  0  0
 15 16  1  0  0  0  0
 16 17  2  0  0  0  0
 17 18  1  0  0  0  0
 18 19  2  0  0  0  0
 19 20  1  0  0  0  0
 20 21  2  0  0  0  0
 21 22  1  0  0  0  0
 22 23  1  0  0  0  0
 23 24  3  0  0  0  0
 22 25  2  0  0  0  0
 25 26  1  0  0  0  0
M  END
> <JC_XSMILES>
CCC1=C(NCC2=CC=CC=C2)N3C4=CC=CC=C4N=C3C(C#N)=C1C

> <GNF-Pf identifier>
GNF-Pf-4970

> <PF proliferation inhibition 3D7 EC50 uM>
0.787

> <W2 Pf proliferation inhibition EC50 uM >
0.2378

> <Huh7 cytotox for Pf inhibitiors CC50 uM>
>100

> <Powder data?>
Yes

> <IFI value>
0.05

> <Salt>
No salt

> <Equiv of salt>
0

$$$$

  -OEChem-06281415292D

 29 32  0     0  0  0  0  0  0999 V2000
   -1.7379    3.0001    0.0000 C   0  0  0  0  0  0  0  0  0  0  0  0
   -1.7350    2.0001    0.0000 O   0  0  0  0  0  0  0  0  0  0  0  0
   -0.8675    1.5027    0.0000 C   0  0  0  0  0  0  0  0  0  0  0  0
   -0.8675    0.4975    0.0000 C   0  0  0  0  0  0  0  0  0  0  0  0
    0.0000    0.0000    0.0000 C   0  0  0  0  0  0  0  0  0  0  0  0
    0.8675    0.4975    0.0000 C   0  0  0  0  0  0  0  0  0  0  0  0
    0.8675    1.5027    0.0000 C   0  0  0  0  0  0  0  0  0  0  0  0
   -0.0000    2.0104    0.0000 N   0  0  0  0  0  0  0  0  0  0  0  0
    1.7350    2.0001    0.0000 C   0  0  0  0  0  0  0  0  0  0  0  0
    2.6025    1.4924    0.0000 C   0  0  0  0  0  0  0  0  0  0  0  0
    3.4701    1.9898    0.0000 C   0  0  0  0  0  0  0  0  0  0  0  0
    3.4789    2.9898    0.0000 C   0  0  0  0  0  0  0  0  0  0  0  0
    4.3486    3.4834    0.0000 O   0  0  0  0  0  0  0  0  0  0  0  0
    2.6113    3.4976    0.0000 C   0  0  0  0  0  0  0  0  0  0  0  0
    2.6202    4.4975    0.0000 C   0  0  0  0  0  0  0  0  0  0  0  0
    1.7586    5.0052    0.0000 N   0  0  0  0  0  0  0  0  0  0  0  0
    1.7616    6.0103    0.0000 C   0  0  0  0  0  0  0  0  0  0  0  0
    0.8956    6.5206    0.0000 C   0  0  0  0  0  0  0  0  0  0  0  0
    0.0265    6.0257    0.0000 C   0  0  0  0  0  0  0  0  0  0  0  0
    0.0148    5.0258    0.0000 C   0  0  0  0  0  0  0  0  0  0  0  0
    0.8808    4.5155    0.0000 C   0  0  0  0  0  0  0  0  0  0  0  0
   -0.8350    6.5334    0.0000 C   0  0  0  0  0  0  0  0  0  0  0  0
   -1.7054    6.0411    0.0000 C   0  0  0  0  0  0  0  0  0  0  0  0
   -1.7114    5.0359    0.0000 C   0  0  0  0  0  0  0  0  0  0  0  0
   -2.5818    4.5435    0.0000 C   0  0  0  0  0  0  0  0  0  0  0  0
   -3.4463    5.0461    0.0000 C   0  0  0  0  0  0  0  0  0  0  0  0
   -3.4404    6.0513    0.0000 C   0  0  0  0  0  0  0  0  0  0  0  0
   -2.5699    6.5539    0.0000 C   0  0  0  0  0  0  0  0  0  0  0  0
    1.7350    3.0053    0.0000 C   0  0  0  0  0  0  0  0  0  0  0  0
  1  2  1  0  0  0  0
  2  3  1  0  0  0  0
  3  8  1  0  0  0  0
  3  4  2  0  0  0  0
  4  5  1  0  0  0  0
  5  6  2  0  0  0  0
  6  7  1  0  0  0  0
  7  8  2  0  0  0  0
  7  9  1  0  0  0  0
  9 29  1  0  0  0  0
  9 10  2  0  0  0  0
 10 11  1  0  0  0  0
 11 12  2  0  0  0  0
 12 13  1  0  0  0  0
 12 14  1  0  0  0  0
 14 15  1  0  0  0  0
 15 16  1  0  0  0  0
 16 21  1  0  0  0  0
 16 17  1  0  0  0  0
 17 18  1  0  0  0  0
 18 19  1  0  0  0  0
 19 20  1  0  0  0  0
 20 21  1  0  0  0  0
 19 22  1  0  0  0  0
 22 23  1  0  0  0  0
 23 28  1  0  0  0  0
 23 24  2  0  0  0  0
 24 25  1  0  0  0  0
 25 26  2  0  0  0  0
 26 27  1  0  0  0  0
 27 28  2  0  0  0  0
 14 29  2  0  0  0  0
M  END
> <JC_XSMILES>
COC1=CC=CC(=N1)C2=CC=C(O)C(CN3CCC(CC3)CC4=CC=CC=C4)=C2

> <GNF-Pf identifier>
GNF-Pf-5016

> <PF proliferation inhibition 3D7 EC50 uM>
0.306

> <W2 Pf proliferation inhibition EC50 uM >
0.0861

> <Huh7 cytotox for Pf inhibitiors CC50 uM>
38.45

> <Powder data?>
Yes

> <IFI value>
0.019230769

> <Salt>
No salt

> <Equiv of salt>
0

$$$$

  -OEChem-06281415292D

 26 29  0     0  0  0  0  0  0999 V2000
    1.7336    2.0052    0.0000 O   0  0  0  0  0  0  0  0  0  0  0  0
    1.7351    3.0052    0.0000 C   0  0  0  0  0  0  0  0  0  0  0  0
    2.6011    3.5052    0.0000 C   0  0  0  0  0  0  0  0  0  0  0  0
    2.6070    4.5052    0.0000 C   0  0  0  0  0  0  0  0  0  0  0  0
    1.7380    5.0104    0.0000 C   0  0  0  0  0  0  0  0  0  0  0  0
    0.8631    4.5155    0.0000 C   0  0  0  0  0  0  0  0  0  0  0  0
    0.8660    3.5104    0.0000 C   0  0  0  0  0  0  0  0  0  0  0  0
   -0.0000    3.0104    0.0000 C   0  0  0  0  0  0  0  0  0  0  0  0
   -0.0000    2.0104    0.0000 N   0  0  0  0  0  0  0  0  0  0  0  0
   -0.8675    1.5027    0.0000 C   0  0  0  0  0  0  0  0  0  0  0  0
   -0.8675    0.4975    0.0000 C   0  0  0  0  0  0  0  0  0  0  0  0
    0.0000    0.0000    0.0000 C   0  0  0  0  0  0  0  0  0  0  0  0
    0.8675    0.4975    0.0000 C   0  0  0  0  0  0  0  0  0  0  0  0
    0.8675    1.5027    0.0000 C   0  0  0  0  0  0  0  0  0  0  0  0
    0.0000   -1.0000    0.0000 C   0  0  0  0  0  0  0  0  0  0  0  0
    0.8720   -1.5000    0.0000 C   0  0  0  0  0  0  0  0  0  0  0  0
    0.8721   -2.5001    0.0000 C   0  0  0  0  0  0  0  0  0  0  0  0
    0.0089   -3.0051    0.0000 C   0  0  0  0  0  0  0  0  0  0  0  0
   -0.8631   -2.5051    0.0000 C   0  0  0  0  0  0  0  0  0  0  0  0
   -0.8720   -1.5000    0.0000 C   0  0  0  0  0  0  0  0  0  0  0  0
    1.7439    6.0104    0.0000 C   0  0  0  0  0  0  0  0  0  0  0  0
    0.8748    6.5155    0.0000 C   0  0  0  0  0  0  0  0  0  0  0  0
    0.8807    7.5156    0.0000 C   0  0  0  0  0  0  0  0  0  0  0  0
    1.7467    8.0155    0.0000 C   0  0  0  0  0  0  0  0  0  0  0  0
    2.6158    7.5104    0.0000 C   0  0  0  0  0  0  0  0  0  0  0  0
    2.6187    6.5052    0.0000 C   0  0  0  0  0  0  0  0  0  0  0  0
  1  2  1  0  0  0  0
  2  7  1  0  0  0  0
  2  3  2  0  0  0  0
  3  4  1  0  0  0  0
  4  5  2  0  0  0  0
  5  6  1  0  0  0  0
  6  7  2  0  0  0  0
  7  8  1  0  0  0  0
  8  9  1  0  0  0  0
  9 14  1  0  0  0  0
  9 10  1  0  0  0  0
 10 11  1  0  0  0  0
 11 12  1  0  0  0  0
 12 13  1  0  0  0  0
 13 14  1  0  0  0  0
 12 15  1  0  0  0  0
 15 20  1  0  0  0  0
 15 16  2  0  0  0  0
 16 17  1  0  0  0  0
 17 18  2  0  0  0  0
 18 19  1  0  0  0  0
 19 20  2  0  0  0  0
  5 21  1  0  0  0  0
 21 26  1  0  0  0  0
 21 22  2  0  0  0  0
 22 23  1  0  0  0  0
 23 24  2  0  0  0  0
 24 25  1  0  0  0  0
 25 26  2  0  0  0  0
M  END
> <JC_XSMILES>
OC1=CC=C(C=C1CN2CCC(CC2)C3=CC=CC=C3)C4=CC=CC=C4

> <GNF-Pf identifier>
GNF-Pf-5045

> <PF proliferation inhibition 3D7 EC50 uM>
2.42

> <W2 Pf proliferation inhibition EC50 uM >
0.2045

> <Huh7 cytotox for Pf inhibitiors CC50 uM>
>100

> <Powder data?>
Yes

> <IFI value>
0.02

> <Salt>
No salt

> <Equiv of salt>
0

$$$$

  -OEChem-06281415292D

 39 42  0     1  0  0  0  0  0999 V2000
   12.5364    0.2510    0.0000 C   0  0  0  0  0  0  0  0  0  0  0  0
   11.8672   -0.4921    0.0000 C   0  0  0  0  0  0  0  0  0  0  0  0
   10.8891   -0.2841    0.0000 C   0  0  0  0  0  0  0  0  0  0  0  0
   10.2199   -1.0272    0.0000 C   0  0  0  0  0  0  0  0  0  0  0  0
    9.2418   -0.8193    0.0000 N   0  0  0  0  0  0  0  0  0  0  0  0
    8.5726   -1.5624    0.0000 C   0  0  0  0  0  0  0  0  0  0  0  0
    8.8816   -2.5134    0.0000 O   0  0  0  0  0  0  0  0  0  0  0  0
    7.5945   -1.3544    0.0000 N   0  0  0  0  0  0  0  0  0  0  0  0
    6.9177   -2.0973    0.0000 C   0  0  0  0  0  0  0  0  0  0  0  0
    5.9346   -1.8883    0.0000 C   0  0  0  0  0  0  0  0  0  0  0  0
    5.6282   -0.9364    0.0000 N   0  0  0  0  0  0  0  0  0  0  0  0
    6.2953   -0.1914    0.0000 C   0  0  0  0  0  0  0  0  0  0  0  0
    7.2784   -0.4004    0.0000 C   0  0  3  0  0  0  0  0  0  0  0  0
    7.9455    0.3446    0.0000 C   0  0  0  0  0  0  0  0  0  0  0  0
    4.6501   -0.7284    0.0000 C   0  0  0  0  0  0  0  0  0  0  0  0
    4.3411    0.2227    0.0000 O   0  0  0  0  0  0  0  0  0  0  0  0
    3.9809   -1.4715    0.0000 C   0  0  3  0  0  0  0  0  0  0  0  0
    3.0028   -1.2636    0.0000 C   0  0  0  0  0  0  0  0  0  0  0  0
    2.6938   -0.3125    0.0000 C   0  0  0  0  0  0  0  0  0  0  0  0
    3.2858    0.5023    0.0000 C   0  0  0  0  0  0  0  0  0  0  0  0
    2.6938    1.3169    0.0000 N   0  0  0  0  0  0  0  0  0  0  0  0
    1.7360    1.0058    0.0000 C   0  0  0  0  0  0  0  0  0  0  0  0
    0.8680    1.5138    0.0000 C   0  0  0  0  0  0  0  0  0  0  0  0
    0.0000    1.0058    0.0000 C   0  0  0  0  0  0  0  0  0  0  0  0
    0.0000    0.0000    0.0000 C   0  0  0  0  0  0  0  0  0  0  0  0
    0.8680   -0.4978    0.0000 C   0  0  0  0  0  0  0  0  0  0  0  0
    1.7360   -0.0012    0.0000 C   0  0  0  0  0  0  0  0  0  0  0  0
    4.2899   -2.4226    0.0000 N   0  0  0  0  0  0  0  0  0  0  0  0
    3.6207   -3.1657    0.0000 C   0  0  0  0  0  0  0  0  0  0  0  0
    2.6426   -2.9578    0.0000 O   0  0  0  0  0  0  0  0  0  0  0  0
    3.9297   -4.1168    0.0000 N   0  0  0  0  0  0  0  0  0  0  0  0
    3.2605   -4.8599    0.0000 C   0  0  0  0  0  0  0  0  0  0  0  0
    3.5739   -5.8150    0.0000 C   0  0  0  0  0  0  0  0  0  0  0  0
    2.9048   -6.5582    0.0000 C   0  0  0  0  0  0  0  0  0  0  0  0
    1.9254   -6.3559    0.0000 C   0  0  0  0  0  0  0  0  0  0  0  0
    1.6120   -5.4008    0.0000 C   0  0  0  0  0  0  0  0  0  0  0  0
    2.2780   -4.6480    0.0000 C   0  0  0  0  0  0  0  0  0  0  0  0
    0.6326   -5.1986    0.0000 C   0  0  0  0  0  0  0  0  0  0  0  0
   -0.3467   -4.9965    0.0000 N   0  0  0  0  0  0  0  0  0  0  0  0
  1  2  1  0  0  0  0
  2  3  1  0  0  0  0
  3  4  1  0  0  0  0
  4  5  1  0  0  0  0
  5  6  1  0  0  0  0
  6  7  2  0  0  0  0
  6  8  1  0  0  0  0
  8 13  1  0  0  0  0
  8  9  1  0  0  0  0
  9 10  1  0  0  0  0
 10 11  1  0  0  0  0
 11 12  1  0  0  0  0
 12 13  1  0  0  0  0
 13 14  1  0  0  0  0
 11 15  1  0  0  0  0
 15 16  2  0  0  0  0
 15 17  1  0  0  0  0
 17 18  1  0  0  0  0
 18 19  1  0  0  0  0
 19 27  1  0  0  0  0
 19 20  2  0  0  0  0
 20 21  1  0  0  0  0
 21 22  1  0  0  0  0
 22 27  1  0  0  0  0
 22 23  2  0  0  0  0
 23 24  1  0  0  0  0
 24 25  2  0  0  0  0
 25 26  1  0  0  0  0
 26 27  2  0  0  0  0
 17 28  1  0  0  0  0
 28 29  1  0  0  0  0
 29 30  2  0  0  0  0
 29 31  1  0  0  0  0
 31 32  1  0  0  0  0
 32 37  1  0  0  0  0
 32 33  2  0  0  0  0
 33 34  1  0  0  0  0
 34 35  2  0  0  0  0
 35 36  1  0  0  0  0
 36 37  2  0  0  0  0
 36 38  1  0  0  0  0
 38 39  3  0  0  0  0
M  END
> <JC_XSMILES>
CCCCNC(=O)N1CCN(CC1C)C(=O)C(CC2=CNC3=CC=CC=C23)NC(=O)NC4=CC=CC(=C4)C#N

> <GNF-Pf identifier>
GNF-Pf-5093

> <PF proliferation inhibition 3D7 EC50 uM>
0.1535

> <W2 Pf proliferation inhibition EC50 uM >
0.1906

> <Huh7 cytotox for Pf inhibitiors CC50 uM>
>100

> <Powder data?>
Yes

> <IFI value>
0.027777778

> <Salt>
No salt

> <Equiv of salt>
0

$$$$

  -OEChem-06281415292D

 34 36  0     1  0  0  0  0  0999 V2000
   -1.7320   -0.0025    0.0000 C   0  0  0  0  0  0  0  0  0  0  0  0
   -0.8653   -0.5013    0.0000 O   0  0  0  0  0  0  0  0  0  0  0  0
    0.0000    0.0000    0.0000 C   0  0  0  0  0  0  0  0  0  0  0  0
   -0.0000    1.0089    0.0000 C   0  0  0  0  0  0  0  0  0  0  0  0
    0.8707    1.5185    0.0000 C   0  0  0  0  0  0  0  0  0  0  0  0
    0.8707    2.5185    0.0000 N   0  0  0  0  0  0  0  0  0  0  0  0
    0.0047    3.0185    0.0000 C   0  0  3  0  0  0  0  0  0  0  0  0
   -0.8614    2.5185    0.0000 C   0  0  0  0  0  0  0  0  0  0  0  0
    0.0047    4.0185    0.0000 C   0  0  0  0  0  0  0  0  0  0  0  0
   -0.8614    4.5185    0.0000 C   0  0  0  0  0  0  0  0  0  0  0  0
   -0.8614    5.5185    0.0000 C   0  0  0  0  0  0  0  0  0  0  0  0
   -1.7274    6.0185    0.0000 N   0  0  0  0  0  0  0  0  0  0  0  0
   -2.5934    5.5185    0.0000 C   0  0  0  0  0  0  0  0  0  0  0  0
   -2.5934    4.5185    0.0000 C   0  0  0  0  0  0  0  0  0  0  0  0
   -1.7214    4.0185    0.0000 C   0  0  0  0  0  0  0  0  0  0  0  0
   -1.7213    3.0184    0.0000 C   0  0  0  0  0  0  0  0  0  0  0  0
   -2.5845    2.5134    0.0000 C   0  0  0  0  0  0  0  0  0  0  0  0
   -2.5801    1.5134    0.0000 F   0  0  0  0  0  0  0  0  0  0  0  0
   -3.4565    3.0134    0.0000 C   0  0  0  0  0  0  0  0  0  0  0  0
   -3.4654    4.0185    0.0000 C   0  0  0  0  0  0  0  0  0  0  0  0
   -1.7274    7.0185    0.0000 C   0  0  0  0  0  0  0  0  0  0  0  0
   -0.8614    7.5185    0.0000 O   0  0  0  0  0  0  0  0  0  0  0  0
   -2.5934    7.5185    0.0000 C   0  0  0  0  0  0  0  0  0  0  0  0
   -3.0934    6.6525    0.0000 C   0  0  0  0  0  0  0  0  0  0  0  0
   -2.0934    8.3845    0.0000 C   0  0  0  0  0  0  0  0  0  0  0  0
   -3.4594    8.0185    0.0000 C   0  0  0  0  0  0  0  0  0  0  0  0
   -4.3255    7.5185    0.0000 Cl  0  0  0  0  0  0  0  0  0  0  0  0
    1.7414    1.0089    0.0000 C   0  0  0  0  0  0  0  0  0  0  0  0
    2.6125    1.5125    0.0000 N   0  0  0  0  0  0  0  0  0  0  0  0
    3.4848    1.0014    0.0000 C   0  0  0  0  0  0  0  0  0  0  0  0
    3.4805   -0.0073    0.0000 C   0  0  0  0  0  0  0  0  0  0  0  0
    2.6039   -0.5053    0.0000 C   0  0  0  0  0  0  0  0  0  0  0  0
    1.7371   -0.0000    0.0000 C   0  0  0  0  0  0  0  0  0  0  0  0
    0.8707   -0.4993    0.0000 C   0  0  0  0  0  0  0  0  0  0  0  0
  1  2  1  0  0  0  0
  2  3  1  0  0  0  0
  3 34  1  0  0  0  0
  3  4  2  0  0  0  0
  4  5  1  0  0  0  0
  5  6  1  0  0  0  0
  6  7  1  0  0  0  0
  7  8  1  0  0  0  0
  7  9  1  0  0  0  0
  9 10  1  0  0  0  0
 10 11  1  0  0  0  0
 11 12  1  0  0  0  0
 12 13  1  0  0  0  0
 13 14  1  0  0  0  0
 14 20  1  0  0  0  0
 14 15  2  0  0  0  0
 15 16  1  0  0  0  0
 16 17  2  0  0  0  0
 17 18  1  0  0  0  0
 17 19  1  0  0  0  0
 19 20  2  0  0  0  0
 12 21  1  0  0  0  0
 21 22  2  0  0  0  0
 21 23  1  0  0  0  0
 23 24  1  0  0  0  0
 23 25  1  0  0  0  0
 23 26  1  0  0  0  0
 26 27  1  0  0  0  0
  5 28  2  0  0  0  0
 28 33  1  0  0  0  0
 28 29  1  0  0  0  0
 29 30  2  0  0  0  0
 30 31  1  0  0  0  0
 31 32  2  0  0  0  0
 32 33  1  0  0  0  0
 33 34  2  0  0  0  0
M  END
> <JC_XSMILES>
COC1=CC(NC(C)CCCN(CC2=CC=C(F)C=C2)C(=O)C(C)(C)CCl)=C3N=CC=CC3=C1

> <GNF-Pf identifier>
GNF-Pf-5098

> <PF proliferation inhibition 3D7 EC50 uM>
0.469

> <W2 Pf proliferation inhibition EC50 uM >
<0.00343

> <Huh7 cytotox for Pf inhibitiors CC50 uM>
>1.831

> <Powder data?>
No

> <IFI value>
0.010526316

> <Salt>
No salt

> <Equiv of salt>
0

$$$$

  -OEChem-06281415292D

 22 24  0     0  0  0  0  0  0999 V2000
    5.3015   -5.7084    0.0000 F   0  0  0  0  0  0  0  0  0  0  0  0
    5.7963   -4.8395    0.0000 C   0  0  0  0  0  0  0  0  0  0  0  0
    4.9273   -4.3446    0.0000 F   0  0  0  0  0  0  0  0  0  0  0  0
    6.6653   -5.3343    0.0000 F   0  0  0  0  0  0  0  0  0  0  0  0
    6.2911   -3.9705    0.0000 C   0  0  0  0  0  0  0  0  0  0  0  0
    7.2963   -3.9674    0.0000 C   0  0  0  0  0  0  0  0  0  0  0  0
    7.7912   -3.0984    0.0000 C   0  0  0  0  0  0  0  0  0  0  0  0
    7.2911   -2.2325    0.0000 C   0  0  0  0  0  0  0  0  0  0  0  0
    6.2859   -2.2355    0.0000 C   0  0  0  0  0  0  0  0  0  0  0  0
    5.7859   -1.3695    0.0000 C   0  0  0  0  0  0  0  0  0  0  0  0
    4.7859   -1.3695    0.0000 N   0  0  0  0  0  0  0  0  0  0  0  0
    4.2858   -0.5035    0.0000 N   0  0  0  0  0  0  0  0  0  0  0  0
    3.2858   -0.5036    0.0000 C   0  0  0  0  0  0  0  0  0  0  0  0
    2.6938    0.3110    0.0000 N   0  0  0  0  0  0  0  0  0  0  0  0
    1.7360   -0.0000    0.0000 C   0  0  0  0  0  0  0  0  0  0  0  0
    0.8680    0.5079    0.0000 C   0  0  0  0  0  0  0  0  0  0  0  0
    0.0000    0.0000    0.0000 C   0  0  0  0  0  0  0  0  0  0  0  0
   -0.0000   -1.0058    0.0000 C   0  0  0  0  0  0  0  0  0  0  0  0
    0.8680   -1.5037    0.0000 C   0  0  0  0  0  0  0  0  0  0  0  0
    1.7360   -1.0071    0.0000 C   0  0  0  0  0  0  0  0  0  0  0  0
    2.6938   -1.3184    0.0000 N   0  0  0  0  0  0  0  0  0  0  0  0
    5.7808   -3.1045    0.0000 C   0  0  0  0  0  0  0  0  0  0  0  0
  1  2  1  0  0  0  0
  2  3  1  0  0  0  0
  2  4  1  0  0  0  0
  2  5  1  0  0  0  0
  5 22  1  0  0  0  0
  5  6  2  0  0  0  0
  6  7  1  0  0  0  0
  7  8  2  0  0  0  0
  8  9  1  0  0  0  0
  9 10  1  0  0  0  0
 10 11  2  3  0  0  0
 11 12  1  0  0  0  0
 12 13  1  0  0  0  0
 13 21  1  0  0  0  0
 13 14  2  0  0  0  0
 14 15  1  0  0  0  0
 15 20  1  0  0  0  0
 15 16  2  0  0  0  0
 16 17  1  0  0  0  0
 17 18  2  0  0  0  0
 18 19  1  0  0  0  0
 19 20  2  0  0  0  0
 20 21  1  0  0  0  0
  9 22  2  0  0  0  0
M  END
> <JC_XSMILES>
FC(F)(F)C1=CC=CC(C=NNC2=NC3=CC=CC=C3N2)=C1

> <GNF-Pf identifier>
GNF-Pf-5117

> <PF proliferation inhibition 3D7 EC50 uM>
0.0946

> <W2 Pf proliferation inhibition EC50 uM >
0.1154

> <Huh7 cytotox for Pf inhibitiors CC50 uM>
63.2

> <Powder data?>
Yes

> <IFI value>
0

> <Salt>
No salt

> <Equiv of salt>
0

$$$$

  -OEChem-06281415292D

 32 35  0     1  0  0  0  0  0999 V2000
    4.2899   -2.4226    0.0000 C   0  0  0  0  0  0  0  0  0  0  0  0
    3.9809   -1.4715    0.0000 O   0  0  0  0  0  0  0  0  0  0  0  0
    3.0028   -1.2636    0.0000 C   0  0  0  0  0  0  0  0  0  0  0  0
    2.3336   -2.0067    0.0000 O   0  0  0  0  0  0  0  0  0  0  0  0
    2.6938   -0.3125    0.0000 C   0  0  0  0  0  0  0  0  0  0  0  0
    3.2858    0.5023    0.0000 C   0  0  0  0  0  0  0  0  0  0  0  0
    2.6938    1.3169    0.0000 S   0  0  0  0  0  0  0  0  0  0  0  0
    1.7360    1.0058    0.0000 C   0  0  0  0  0  0  0  0  0  0  0  0
    1.7360   -0.0012    0.0000 C   0  0  0  0  0  0  0  0  0  0  0  0
    0.8680   -0.4978    0.0000 C   0  0  0  0  0  0  0  0  0  0  0  0
    0.0000    0.0000    0.0000 C   0  0  0  0  0  0  0  0  0  0  0  0
   -0.0000    1.0058    0.0000 N   0  0  3  0  0  0  0  0  0  0  0  0
   -0.8675    1.5032    0.0000 C   0  0  0  0  0  0  0  0  0  0  0  0
   -1.7320    1.0007    0.0000 C   0  0  0  0  0  0  0  0  0  0  0  0
   -2.5995    1.4981    0.0000 C   0  0  0  0  0  0  0  0  0  0  0  0
   -3.4641    0.9956    0.0000 C   0  0  0  0  0  0  0  0  0  0  0  0
   -3.4582   -0.0096    0.0000 C   0  0  0  0  0  0  0  0  0  0  0  0
   -4.3227   -0.5122    0.0000 C   0  0  0  0  0  0  0  0  0  0  0  0
   -5.1931   -0.0199    0.0000 C   0  0  0  0  0  0  0  0  0  0  0  0
   -5.1991    0.9853    0.0000 C   0  0  0  0  0  0  0  0  0  0  0  0
   -4.3346    1.4981    0.0000 C   0  0  0  0  0  0  0  0  0  0  0  0
    0.8680    1.5138    0.0000 C   0  0  0  0  0  0  0  0  0  0  0  0
    4.2858    0.5024    0.0000 S   0  0  0  0  0  0  0  0  0  0  0  0
    4.2857    1.5024    0.0000 O   0  0  0  0  0  0  0  0  0  0  0  0
    4.2859   -0.4976    0.0000 O   0  0  0  0  0  0  0  0  0  0  0  0
    5.2858    0.5024    0.0000 N   0  0  0  0  0  0  0  0  0  0  0  0
    5.7934   -0.3650    0.0000 C   0  0  0  0  0  0  0  0  0  0  0  0
    6.7985   -0.3649    0.0000 C   0  0  0  0  0  0  0  0  0  0  0  0
    7.2960    0.5025    0.0000 N   0  0  0  0  0  0  0  0  0  0  0  0
    8.2960    0.5026    0.0000 C   0  0  0  0  0  0  0  0  0  0  0  0
    6.7983    1.3699    0.0000 C   0  0  0  0  0  0  0  0  0  0  0  0
    5.7932    1.3698    0.0000 C   0  0  0  0  0  0  0  0  0  0  0  0
  1  2  1  0  0  0  0
  2  3  1  0  0  0  0
  3  4  2  0  0  0  0
  3  5  1  0  0  0  0
  5  9  1  0  0  0  0
  5  6  2  0  0  0  0
  6  7  1  0  0  0  0
  7  8  1  0  0  0  0
  8 22  1  0  0  0  0
  8  9  2  0  0  0  0
  9 10  1  0  0  0  0
 10 11  1  0  0  0  0
 11 12  1  0  0  0  0
 12 13  1  0  0  0  0
 13 14  1  0  0  0  0
 14 15  1  0  0  0  0
 15 16  1  0  0  0  0
 16 21  1  0  0  0  0
 16 17  2  0  0  0  0
 17 18  1  0  0  0  0
 18 19  2  0  0  0  0
 19 20  1  0  0  0  0
 20 21  2  0  0  0  0
 12 22  1  0  0  0  0
  6 23  1  0  0  0  0
 23 24  2  0  0  0  0
 23 25  2  0  0  0  0
 23 26  1  0  0  0  0
 26 32  1  0  0  0  0
 26 27  1  0  0  0  0
 27 28  1  0  0  0  0
 28 29  1  0  0  0  0
 29 30  1  0  0  0  0
 29 31  1  0  0  0  0
 31 32  1  0  0  0  0
M  END
> <JC_XSMILES>
COC(=O)C1=C(SC2=C1CCN(CCCC3=CC=CC=C3)C2)S(=O)(=O)N4CCN(C)CC4

> <GNF-Pf identifier>
GNF-Pf-517

> <PF proliferation inhibition 3D7 EC50 uM>
1.421

> <W2 Pf proliferation inhibition EC50 uM >
1.257

> <Huh7 cytotox for Pf inhibitiors CC50 uM>
>10

> <Powder data?>
No

> <IFI value>
0.019607843

> <Salt>
No salt

> <Equiv of salt>
0

$$$$

  -OEChem-06281415292D

 31 34  0     0  0  0  0  0  0999 V2000
    3.4448   -5.0101    0.0000 C   0  0  0  0  0  0  0  0  0  0  0  0
    4.3136   -4.5149    0.0000 N   0  0  0  0  0  0  0  0  0  0  0  0
    4.3192   -3.5149    0.0000 C   0  0  0  0  0  0  0  0  0  0  0  0
    3.4560   -3.0101    0.0000 C   0  0  0  0  0  0  0  0  0  0  0  0
    3.4615   -2.0101    0.0000 C   0  0  0  0  0  0  0  0  0  0  0  0
    2.5983   -1.5053    0.0000 N   0  0  0  0  0  0  0  0  0  0  0  0
    2.6039   -0.5053    0.0000 C   0  0  0  0  0  0  0  0  0  0  0  0
    3.4805   -0.0073    0.0000 C   0  0  0  0  0  0  0  0  0  0  0  0
    3.4848    1.0014    0.0000 C   0  0  0  0  0  0  0  0  0  0  0  0
    2.6125    1.5125    0.0000 N   0  0  0  0  0  0  0  0  0  0  0  0
    1.7414    1.0089    0.0000 C   0  0  0  0  0  0  0  0  0  0  0  0
    0.8707    1.5185    0.0000 C   0  0  0  0  0  0  0  0  0  0  0  0
    0.0000    1.0089    0.0000 C   0  0  0  0  0  0  0  0  0  0  0  0
   -0.8675    1.5063    0.0000 Cl  0  0  0  0  0  0  0  0  0  0  0  0
    0.0000    0.0000    0.0000 C   0  0  0  0  0  0  0  0  0  0  0  0
    0.8707   -0.4993    0.0000 C   0  0  0  0  0  0  0  0  0  0  0  0
    1.7371    0.0000    0.0000 C   0  0  0  0  0  0  0  0  0  0  0  0
    5.1768   -5.0197    0.0000 C   0  0  0  0  0  0  0  0  0  0  0  0
    6.0456   -4.5246    0.0000 O   0  0  0  0  0  0  0  0  0  0  0  0
    5.1713   -6.0197    0.0000 C   0  0  0  0  0  0  0  0  0  0  0  0
    6.0405   -6.5246    0.0000 C   0  0  0  0  0  0  0  0  0  0  0  0
    6.0350   -7.5246    0.0000 C   0  0  0  0  0  0  0  0  0  0  0  0
    5.1690   -8.0249    0.0000 C   0  0  0  0  0  0  0  0  0  0  0  0
    4.2998   -7.5200    0.0000 C   0  0  0  0  0  0  0  0  0  0  0  0
    4.2965   -6.5148    0.0000 C   0  0  0  0  0  0  0  0  0  0  0  0
    5.1679   -9.0249    0.0000 C   0  0  0  0  0  0  0  0  0  0  0  0
    6.0393   -9.5259    0.0000 C   0  0  0  0  0  0  0  0  0  0  0  0
    6.0382  -10.5259    0.0000 C   0  0  0  0  0  0  0  0  0  0  0  0
    5.1745  -11.0300    0.0000 C   0  0  0  0  0  0  0  0  0  0  0  0
    4.3030  -10.5289    0.0000 C   0  0  0  0  0  0  0  0  0  0  0  0
    4.2953   -9.5238    0.0000 C   0  0  0  0  0  0  0  0  0  0  0  0
  1  2  1  0  0  0  0
  2  3  1  0  0  0  0
  3  4  1  0  0  0  0
  4  5  1  0  0  0  0
  5  6  1  0  0  0  0
  6  7  1  0  0  0  0
  7 17  1  0  0  0  0
  7  8  2  0  0  0  0
  8  9  1  0  0  0  0
  9 10  2  0  0  0  0
 10 11  1  0  0  0  0
 11 17  1  0  0  0  0
 11 12  2  0  0  0  0
 12 13  1  0  0  0  0
 13 14  1  0  0  0  0
 13 15  2  0  0  0  0
 15 16  1  0  0  0  0
 16 17  2  0  0  0  0
  2 18  1  0  0  0  0
 18 19  2  0  0  0  0
 18 20  1  0  0  0  0
 20 25  1  0  0  0  0
 20 21  2  0  0  0  0
 21 22  1  0  0  0  0
 22 23  2  0  0  0  0
 23 24  1  0  0  0  0
 24 25  2  0  0  0  0
 23 26  1  0  0  0  0
 26 31  1  0  0  0  0
 26 27  2  0  0  0  0
 27 28  1  0  0  0  0
 28 29  2  0  0  0  0
 29 30  1  0  0  0  0
 30 31  2  0  0  0  0
M  END
> <JC_XSMILES>
CN(CCCNC1=CC=NC2=CC(Cl)=CC=C12)C(=O)C3=CC=C(C=C3)C4=CC=CC=C4

> <GNF-Pf identifier>
GNF-Pf-5171

> <PF proliferation inhibition 3D7 EC50 uM>
0.326

> <W2 Pf proliferation inhibition EC50 uM >
<0.0156

> <Huh7 cytotox for Pf inhibitiors CC50 uM>
10.05

> <Powder data?>
No

> <IFI value>
0.028301887

> <Salt>
No salt

> <Equiv of salt>
0

$$$$

  -OEChem-06281415292D

 28 29  0     1  0  0  0  0  0999 V2000
    2.2646    1.2597    0.0000 C   0  0  0  0  0  0  0  0  0  0  0  0
    1.3131    0.9519    0.0000 C   0  0  0  0  0  0  0  0  0  0  0  0
    1.0014    0.0000    0.0000 N   0  0  0  0  0  0  0  0  0  0  0  0
    0.0000    0.0000    0.0000 C   0  0  0  0  0  0  0  0  0  0  0  0
   -0.3065    0.9519    0.0000 C   0  0  0  0  0  0  0  0  0  0  0  0
    0.5007    1.5426    0.0000 N   0  0  0  0  0  0  0  0  0  0  0  0
    0.4992    2.5426    0.0000 C   0  0  0  0  0  0  0  0  0  0  0  0
   -0.3676    3.0413    0.0000 C   0  0  0  0  0  0  0  0  0  0  0  0
   -0.3691    4.0413    0.0000 O   0  0  0  0  0  0  0  0  0  0  0  0
   -1.2359    4.5399    0.0000 C   0  0  0  0  0  0  0  0  0  0  0  0
   -2.1012    4.0386    0.0000 O   0  0  0  0  0  0  0  0  0  0  0  0
   -1.2375    5.5399    0.0000 N   0  0  0  0  0  0  0  0  0  0  0  0
   -2.1042    6.0386    0.0000 C   0  0  3  0  0  0  0  0  0  0  0  0
   -2.1058    7.0386    0.0000 N   0  0  0  0  0  0  0  0  0  0  0  0
   -1.2405    7.5399    0.0000 C   0  0  0  0  0  0  0  0  0  0  0  0
   -0.3707    7.0361    0.0000 C   0  0  0  0  0  0  0  0  0  0  0  0
    0.4946    7.5374    0.0000 C   0  0  0  0  0  0  0  0  0  0  0  0
    0.4989    8.5374    0.0000 C   0  0  0  0  0  0  0  0  0  0  0  0
    1.3664    9.0349    0.0000 Br  0  0  0  0  0  0  0  0  0  0  0  0
   -0.3709    9.0413    0.0000 C   0  0  0  0  0  0  0  0  0  0  0  0
   -1.2450    8.5451    0.0000 C   0  0  0  0  0  0  0  0  0  0  0  0
   -2.9695    5.5373    0.0000 C   0  0  0  0  0  0  0  0  0  0  0  0
   -3.4708    6.4026    0.0000 Cl  0  0  0  0  0  0  0  0  0  0  0  0
   -2.4682    4.6720    0.0000 Cl  0  0  0  0  0  0  0  0  0  0  0  0
   -3.8348    5.0360    0.0000 Cl  0  0  0  0  0  0  0  0  0  0  0  0
   -1.2577    1.2606    0.0000 N   0  3  0  0  0  0  0  0  0  0  0  0
   -2.0006    0.5911    0.0000 O   0  5  0  0  0  0  0  0  0  0  0  0
   -1.4660    2.2386    0.0000 O   0  0  0  0  0  0  0  0  0  0  0  0
  1  2  1  0  0  0  0
  2  6  1  0  0  0  0
  2  3  2  0  0  0  0
  3  4  1  0  0  0  0
  4  5  2  0  0  0  0
  5  6  1  0  0  0  0
  6  7  1  0  0  0  0
  7  8  1  0  0  0  0
  8  9  1  0  0  0  0
  9 10  1  0  0  0  0
 10 11  2  0  0  0  0
 10 12  1  0  0  0  0
 12 13  1  0  0  0  0
 13 14  1  0  0  0  0
 14 15  1  0  0  0  0
 15 21  1  0  0  0  0
 15 16  2  0  0  0  0
 16 17  1  0  0  0  0
 17 18  2  0  0  0  0
 18 19  1  0  0  0  0
 18 20  1  0  0  0  0
 20 21  2  0  0  0  0
 13 22  1  0  0  0  0
 22 23  1  0  0  0  0
 22 24  1  0  0  0  0
 22 25  1  0  0  0  0
  5 26  1  0  0  0  0
 26 27  1  0  0  0  0
 26 28  2  0  0  0  0
M  CHG  2  26   1  27  -1
M  END
> <JC_XSMILES>
CC1=NC=C(N1CCOC(=O)NC(NC2=CC=C(Br)C=C2)C(Cl)(Cl)Cl)[N+]([O-])=O

> <GNF-Pf identifier>
GNF-Pf-5187

> <PF proliferation inhibition 3D7 EC50 uM>
0.2291

> <W2 Pf proliferation inhibition EC50 uM >
0.1519

> <Huh7 cytotox for Pf inhibitiors CC50 uM>
>100

> <Powder data?>
Yes

> <IFI value>
0

> <Salt>
No salt

> <Equiv of salt>
0

$$$$

  -OEChem-06281415292D

 37 41  0     1  0  0  0  0  0999 V2000
    6.6232    0.2014    0.0000 O   0  5  0  0  0  0  0  0  0  0  0  0
    7.1133   -0.6703    0.0000 N   0  3  0  0  0  0  0  0  0  0  0  0
    8.1132   -0.6818    0.0000 O   0  0  0  0  0  0  0  0  0  0  0  0
    6.6034   -1.5306    0.0000 C   0  0  0  0  0  0  0  0  0  0  0  0
    7.0985   -2.4054    0.0000 C   0  0  0  0  0  0  0  0  0  0  0  0
    6.5886   -3.2656    0.0000 C   0  0  0  0  0  0  0  0  0  0  0  0
    5.5886   -3.2600    0.0000 C   0  0  0  0  0  0  0  0  0  0  0  0
    5.0935   -2.3852    0.0000 C   0  0  0  0  0  0  0  0  0  0  0  0
    5.5983   -1.5161    0.0000 C   0  0  0  0  0  0  0  0  0  0  0  0
    4.0935   -2.3797    0.0000 C   0  0  0  0  0  0  0  0  0  0  0  0
    3.5887   -3.2429    0.0000 O   0  0  0  0  0  0  0  0  0  0  0  0
    3.5983   -1.5109    0.0000 O   0  0  0  0  0  0  0  0  0  0  0  0
    2.5983   -1.5053    0.0000 C   0  0  1  0  0  0  0  0  0  0  0  0
    1.5983   -1.4997    0.0000 H   0  0  0  0  0  0  0  0  0  0  0  0
    2.5886   -3.2553    0.0000 C   0  0  2  0  0  0  0  0  0  0  0  0
    4.3131   -2.9576    0.0000 H   0  0  0  0  0  0  0  0  0  0  0  0
    1.2087   -3.0012    0.0000 C   0  0  0  0  0  0  0  0  0  0  0  0
    0.3064   -4.0664    0.0000 C   0  0  2  0  0  0  0  0  0  0  0  0
   -0.6771   -3.8853    0.0000 H   0  0  0  0  0  0  0  0  0  0  0  0
    0.8184   -4.9254    0.0000 C   0  0  0  0  0  0  0  0  0  0  0  0
    2.1933   -5.2072    0.0000 C   0  0  0  0  0  0  0  0  0  0  0  0
    3.0664   -4.5746    0.0000 N   0  0  3  0  0  0  0  0  0  0  0  0
    2.1500   -5.6372    0.0000 C   0  0  0  0  0  0  0  0  0  0  0  0
    0.7701   -5.3831    0.0000 C   0  0  2  0  0  0  0  0  0  0  0  0
    0.7616   -6.3831    0.0000 H   0  0  0  0  0  0  0  0  0  0  0  0
   -0.2163   -5.5474    0.0000 C   0  0  0  0  0  0  0  0  0  0  0  0
   -0.5673   -6.4838    0.0000 C   0  0  0  0  0  0  0  0  0  0  0  0
    2.6039   -0.5053    0.0000 C   0  0  0  0  0  0  0  0  0  0  0  0
    3.4805   -0.0073    0.0000 C   0  0  0  0  0  0  0  0  0  0  0  0
    3.4848    1.0014    0.0000 C   0  0  0  0  0  0  0  0  0  0  0  0
    2.6125    1.5125    0.0000 N   0  0  0  0  0  0  0  0  0  0  0  0
    1.7414    1.0089    0.0000 C   0  0  0  0  0  0  0  0  0  0  0  0
    0.8707    1.5185    0.0000 C   0  0  0  0  0  0  0  0  0  0  0  0
    0.0000    1.0089    0.0000 C   0  0  0  0  0  0  0  0  0  0  0  0
    0.0000    0.0000    0.0000 C   0  0  0  0  0  0  0  0  0  0  0  0
    0.8707   -0.4993    0.0000 C   0  0  0  0  0  0  0  0  0  0  0  0
    1.7371    0.0000    0.0000 C   0  0  0  0  0  0  0  0  0  0  0  0
  1  2  1  0  0  0  0
  2  3  2  0  0  0  0
  2  4  1  0  0  0  0
  4  9  1  0  0  0  0
  4  5  2  0  0  0  0
  5  6  1  0  0  0  0
  6  7  2  0  0  0  0
  7  8  1  0  0  0  0
  8  9  2  0  0  0  0
  8 10  1  0  0  0  0
 10 11  2  0  0  0  0
 10 12  1  0  0  0  0
 12 13  1  0  0  0  0
 13 14  1  6  0  0  0
 13 15  1  0  0  0  0
 15 16  1  6  0  0  0
 15 22  1  0  0  0  0
 15 17  1  0  0  0  0
 17 18  1  0  0  0  0
 18 19  1  1  0  0  0
 18 24  1  0  0  0  0
 18 20  1  0  0  0  0
 20 21  1  0  0  0  0
 21 22  1  0  0  0  0
 22 23  1  0  0  0  0
 23 24  1  0  0  0  0
 24 25  1  1  0  0  0
 24 26  1  0  0  0  0
 26 27  2  0  0  0  0
 13 28  1  0  0  0  0
 28 37  1  0  0  0  0
 28 29  2  0  0  0  0
 29 30  1  0  0  0  0
 30 31  2  0  0  0  0
 31 32  1  0  0  0  0
 32 37  1  0  0  0  0
 32 33  2  0  0  0  0
 33 34  1  0  0  0  0
 34 35  2  0  0  0  0
 35 36  1  0  0  0  0
 36 37  2  0  0  0  0
M  CHG  2   1  -1   2   1
M  END
> <JC_XSMILES>
[O-][N+](=O)C1=CC=CC(=C1)C(=O)O[C@@H]([C@@H]2C[C@@H]3CCN2C[C@@H]3C=C)C4=CC=NC5=CC=CC=C45

> <GNF-Pf identifier>
GNF-Pf-5207

> <PF proliferation inhibition 3D7 EC50 uM>
0.396

> <W2 Pf proliferation inhibition EC50 uM >
<0.01454

> <Huh7 cytotox for Pf inhibitiors CC50 uM>
>10

> <Powder data?>
No

> <IFI value>
0.009259259

> <Salt>
No salt

> <Equiv of salt>
0

$$$$

  -OEChem-06281415292D

 23 26  0     1  0  0  0  0  0999 V2000
    0.3065   -0.9518    0.0000 N   0  0  0  0  0  0  0  0  0  0  0  0
    1.3080   -0.9518    0.0000 N   0  0  3  0  0  0  0  0  0  0  0  0
    1.6198   -0.0000    0.0000 N   0  0  0  0  0  0  0  0  0  0  0  0
    0.8073    0.5908    0.0000 N   0  0  0  0  0  0  0  0  0  0  0  0
    0.0000    0.0000    0.0000 C   0  0  0  0  0  0  0  0  0  0  0  0
   -0.9512    0.3086    0.0000 C   0  0  0  0  0  0  0  0  0  0  0  0
   -1.6959   -0.3665    0.0000 C   0  0  0  0  0  0  0  0  0  0  0  0
   -2.6472   -0.0579    0.0000 C   0  0  0  0  0  0  0  0  0  0  0  0
   -2.8612    0.9190    0.0000 C   0  0  0  0  0  0  0  0  0  0  0  0
   -2.1165    1.5941    0.0000 C   0  0  0  0  0  0  0  0  0  0  0  0
   -1.1577    1.2923    0.0000 C   0  0  0  0  0  0  0  0  0  0  0  0
    2.5713    0.3077    0.0000 C   0  0  0  0  0  0  0  0  0  0  0  0
    2.7788    1.2912    0.0000 C   0  0  0  0  0  0  0  0  0  0  0  0
    3.7303    1.5990    0.0000 C   0  0  0  0  0  0  0  0  0  0  0  0
    4.4764    0.9331    0.0000 C   0  0  0  0  0  0  0  0  0  0  0  0
    4.2689   -0.0504    0.0000 C   0  0  0  0  0  0  0  0  0  0  0  0
    3.3153   -0.3681    0.0000 C   0  0  0  0  0  0  0  0  0  0  0  0
    1.8948   -1.7615    0.0000 C   0  0  0  0  0  0  0  0  0  0  0  0
    2.8943   -1.6547    0.0000 C   0  0  0  0  0  0  0  0  0  0  0  0
    3.4812   -2.4644    0.0000 C   0  0  0  0  0  0  0  0  0  0  0  0
    3.0787   -3.3799    0.0000 C   0  0  0  0  0  0  0  0  0  0  0  0
    2.0792   -3.4867    0.0000 C   0  0  0  0  0  0  0  0  0  0  0  0
    1.4822   -2.6781    0.0000 C   0  0  0  0  0  0  0  0  0  0  0  0
  1  5  1  0  0  0  0
  1  2  1  0  0  0  0
  2  3  1  0  0  0  0
  3  4  1  0  0  0  0
  4  5  2  0  0  0  0
  5  6  1  0  0  0  0
  6 11  1  0  0  0  0
  6  7  2  0  0  0  0
  7  8  1  0  0  0  0
  8  9  2  0  0  0  0
  9 10  1  0  0  0  0
 10 11  2  0  0  0  0
  3 12  1  0  0  0  0
 12 17  1  0  0  0  0
 12 13  2  0  0  0  0
 13 14  1  0  0  0  0
 14 15  2  0  0  0  0
 15 16  1  0  0  0  0
 16 17  2  0  0  0  0
  2 18  1  0  0  0  0
 18 23  1  0  0  0  0
 18 19  2  0  0  0  0
 19 20  1  0  0  0  0
 20 21  2  0  0  0  0
 21 22  1  0  0  0  0
 22 23  2  0  0  0  0
M  END
> <JC_XSMILES>
N1N(N(N=C1C2=CC=CC=C2)C3=CC=CC=C3)C4=CC=CC=C4

> <GNF-Pf identifier>
GNF-Pf-5256

> <PF proliferation inhibition 3D7 EC50 uM>
0.1368

> <W2 Pf proliferation inhibition EC50 uM >
0.1291

> <Huh7 cytotox for Pf inhibitiors CC50 uM>
>100

> <Powder data?>
Yes

> <IFI value>
0.090909091

> <Salt>
No salt

> <Equiv of salt>
0

$$$$

  -OEChem-06281415292D

 23 26  0     1  0  0  0  0  0999 V2000
    0.0240   -2.0089    0.0000 C   0  0  0  0  0  0  0  0  0  0  0  0
    0.8870   -1.5038    0.0000 C   0  0  0  0  0  0  0  0  0  0  0  0
    1.7560   -1.9986    0.0000 N   0  0  3  0  0  0  0  0  0  0  0  0
    1.7679   -3.0037    0.0000 C   0  0  0  0  0  0  0  0  0  0  0  0
    2.6414   -3.5011    0.0000 C   0  0  0  0  0  0  0  0  0  0  0  0
    3.5030   -2.9934    0.0000 C   0  0  0  0  0  0  0  0  0  0  0  0
    3.4999   -1.9934    0.0000 C   0  0  3  0  0  0  0  0  0  0  0  0
    2.6264   -1.4960    0.0000 C   0  0  0  0  0  0  0  0  0  0  0  0
    4.3637   -1.4895    0.0000 N   0  0  0  0  0  0  0  0  0  0  0  0
    4.3592   -0.4895    0.0000 C   0  0  0  0  0  0  0  0  0  0  0  0
    5.2278    0.0156    0.0000 C   0  0  0  0  0  0  0  0  0  0  0  0
    5.2220    1.0212    0.0000 C   0  0  0  0  0  0  0  0  0  0  0  0
    4.3474    1.5217    0.0000 N   0  0  0  0  0  0  0  0  0  0  0  0
    3.4844    1.0111    0.0000 C   0  0  0  0  0  0  0  0  0  0  0  0
    2.6094    1.5170    0.0000 C   0  0  0  0  0  0  0  0  0  0  0  0
    1.7412    1.0087    0.0000 C   0  0  0  0  0  0  0  0  0  0  0  0
    0.8707    1.5182    0.0000 C   0  0  0  0  0  0  0  0  0  0  0  0
    0.0000    1.0087    0.0000 C   0  0  0  0  0  0  0  0  0  0  0  0
    0.0000    0.0000    0.0000 C   0  0  0  0  0  0  0  0  0  0  0  0
    0.8707   -0.4992    0.0000 C   0  0  0  0  0  0  0  0  0  0  0  0
    1.7425   -0.0000    0.0000 C   0  0  0  0  0  0  0  0  0  0  0  0
    2.6119   -0.5005    0.0000 C   0  0  0  0  0  0  0  0  0  0  0  0
    3.4902    0.0054    0.0000 C   0  0  0  0  0  0  0  0  0  0  0  0
  1  2  1  0  0  0  0
  2  3  1  0  0  0  0
  3  8  1  0  0  0  0
  3  4  1  0  0  0  0
  4  5  1  0  0  0  0
  5  6  1  0  0  0  0
  6  7  1  0  0  0  0
  7  8  1  0  0  0  0
  7  9  1  0  0  0  0
  9 10  1  0  0  0  0
 10 23  1  0  0  0  0
 10 11  2  0  0  0  0
 11 12  1  0  0  0  0
 12 13  2  0  0  0  0
 13 14  1  0  0  0  0
 14 23  1  0  0  0  0
 14 15  2  0  0  0  0
 15 16  1  0  0  0  0
 16 21  1  0  0  0  0
 16 17  2  0  0  0  0
 17 18  1  0  0  0  0
 18 19  2  0  0  0  0
 19 20  1  0  0  0  0
 20 21  2  0  0  0  0
 21 22  1  0  0  0  0
 22 23  2  0  0  0  0
M  END
> <JC_XSMILES>
CCN1CCCC(C1)NC2=CC=NC3=CC4=CC=CC=C4C=C23

> <GNF-Pf identifier>
GNF-Pf-5260

> <PF proliferation inhibition 3D7 EC50 uM>
0.00824

> <W2 Pf proliferation inhibition EC50 uM >
0.00481

> <Huh7 cytotox for Pf inhibitiors CC50 uM>
3.75

> <Powder data?>
Yes

> <IFI value>
0.117647059

> <Salt>
No salt

> <Equiv of salt>
0

$$$$

  -OEChem-06281415292D

 34 38  0     0  0  0  0  0  0999 V2000
    2.5154   -6.6046    0.0000 C   0  0  0  0  0  0  0  0  0  0  0  0
    2.2106   -5.6522    0.0000 C   0  0  0  0  0  0  0  0  0  0  0  0
    1.2334   -5.4399    0.0000 O   0  0  0  0  0  0  0  0  0  0  0  0
    0.9286   -4.4875    0.0000 C   0  0  0  0  0  0  0  0  0  0  0  0
   -0.0543   -4.2770    0.0000 C   0  0  0  0  0  0  0  0  0  0  0  0
   -0.3591   -3.3246    0.0000 C   0  0  0  0  0  0  0  0  0  0  0  0
    0.3090   -2.5805    0.0000 C   0  0  0  0  0  0  0  0  0  0  0  0
    1.2919   -2.7909    0.0000 C   0  0  0  0  0  0  0  0  0  0  0  0
    1.6067   -3.7455    0.0000 C   0  0  0  0  0  0  0  0  0  0  0  0
    0.0000   -1.6294    0.0000 N   0  0  0  0  0  0  0  0  0  0  0  0
    0.5920   -0.8146    0.0000 C   0  0  0  0  0  0  0  0  0  0  0  0
    0.0000    0.0000    0.0000 C   0  0  0  0  0  0  0  0  0  0  0  0
    0.3090    0.9510    0.0000 C   0  0  0  0  0  0  0  0  0  0  0  0
   -0.3657    1.6961    0.0000 C   0  0  0  0  0  0  0  0  0  0  0  0
   -0.0567    2.6472    0.0000 C   0  0  0  0  0  0  0  0  0  0  0  0
    0.9202    2.8608    0.0000 C   0  0  0  0  0  0  0  0  0  0  0  0
    1.5950    2.1157    0.0000 C   0  0  0  0  0  0  0  0  0  0  0  0
    1.2928    1.1571    0.0000 C   0  0  0  0  0  0  0  0  0  0  0  0
   -0.9578   -0.3110    0.0000 C   0  0  0  0  0  0  0  0  0  0  0  0
   -1.8258    0.1969    0.0000 C   0  0  0  0  0  0  0  0  0  0  0  0
   -1.8258    1.1969    0.0000 S   0  0  0  0  0  0  0  0  0  0  0  0
   -2.6918    1.6969    0.0000 C   0  0  0  0  0  0  0  0  0  0  0  0
   -2.6918    2.6969    0.0000 C   0  0  0  0  0  0  0  0  0  0  0  0
   -1.8199    3.1969    0.0000 C   0  0  0  0  0  0  0  0  0  0  0  0
   -1.8288    4.2020    0.0000 C   0  0  0  0  0  0  0  0  0  0  0  0
   -0.9657    4.7071    0.0000 C   0  0  0  0  0  0  0  0  0  0  0  0
   -2.7008    4.7020    0.0000 C   0  0  0  0  0  0  0  0  0  0  0  0
   -3.5639    4.1970    0.0000 C   0  0  0  0  0  0  0  0  0  0  0  0
   -3.5638    3.1969    0.0000 C   0  0  0  0  0  0  0  0  0  0  0  0
   -4.4291    2.6956    0.0000 C   0  0  0  0  0  0  0  0  0  0  0  0
   -2.6938   -0.3110    0.0000 N   0  0  0  0  0  0  0  0  0  0  0  0
   -2.6938   -1.3168    0.0000 C   0  0  0  0  0  0  0  0  0  0  0  0
   -1.8258   -1.8147    0.0000 N   0  0  0  0  0  0  0  0  0  0  0  0
   -0.9578   -1.3181    0.0000 C   0  0  0  0  0  0  0  0  0  0  0  0
  1  2  1  0  0  0  0
  2  3  1  0  0  0  0
  3  4  1  0  0  0  0
  4  9  1  0  0  0  0
  4  5  2  0  0  0  0
  5  6  1  0  0  0  0
  6  7  2  0  0  0  0
  7  8  1  0  0  0  0
  8  9  2  0  0  0  0
  7 10  1  0  0  0  0
 10 34  1  0  0  0  0
 10 11  1  0  0  0  0
 11 12  2  0  0  0  0
 12 13  1  0  0  0  0
 13 18  1  0  0  0  0
 13 14  2  0  0  0  0
 14 15  1  0  0  0  0
 15 16  2  0  0  0  0
 16 17  1  0  0  0  0
 17 18  2  0  0  0  0
 12 19  1  0  0  0  0
 19 34  1  0  0  0  0
 19 20  2  0  0  0  0
 20 21  1  0  0  0  0
 21 22  1  0  0  0  0
 22 23  1  0  0  0  0
 23 29  1  0  0  0  0
 23 24  2  0  0  0  0
 24 25  1  0  0  0  0
 25 26  1  0  0  0  0
 25 27  2  0  0  0  0
 27 28  1  0  0  0  0
 28 29  2  0  0  0  0
 29 30  1  0  0  0  0
 20 31  1  0  0  0  0
 31 32  2  0  0  0  0
 32 33  1  0  0  0  0
 33 34  2  0  0  0  0
M  END
> <JC_XSMILES>
CCOC1=CC=C(C=C1)N2C=C(C3=CC=CC=C3)C4=C(SCC5=CC(C)=CC=C5C)N=CN=C24

> <GNF-Pf identifier>
GNF-Pf-528

> <PF proliferation inhibition 3D7 EC50 uM>
2.011

> <W2 Pf proliferation inhibition EC50 uM >
>1.25

> <Huh7 cytotox for Pf inhibitiors CC50 uM>
>10

> <Powder data?>
No

> <IFI value>
0

> <Salt>
No salt

> <Equiv of salt>
0

$$$$

  -OEChem-06281415292D

 35 38  0     0  0  0  0  0  0999 V2000
    2.2107    5.9951    0.0000 C   0  0  0  0  0  0  0  0  0  0  0  0
    1.9017    5.0441    0.0000 C   0  0  0  0  0  0  0  0  0  0  0  0
    2.8527    4.7350    0.0000 C   0  0  0  0  0  0  0  0  0  0  0  0
    0.9506    5.3531    0.0000 C   0  0  0  0  0  0  0  0  0  0  0  0
    1.5308    3.9028    0.0000 C   0  0  0  0  0  0  0  0  0  0  0  0
    2.3337    3.0110    0.0000 C   0  0  0  0  0  0  0  0  0  0  0  0
    1.5906    2.3419    0.0000 C   0  0  0  0  0  0  0  0  0  0  0  0
    3.0769    3.6801    0.0000 C   0  0  0  0  0  0  0  0  0  0  0  0
    3.0029    2.2678    0.0000 N   0  0  0  0  0  0  0  0  0  0  0  0
    2.6938    1.3168    0.0000 C   0  0  0  0  0  0  0  0  0  0  0  0
    3.2858    0.5022    0.0000 C   0  0  0  0  0  0  0  0  0  0  0  0
    2.6938   -0.3126    0.0000 N   0  0  0  0  0  0  0  0  0  0  0  0
    1.7360   -0.0013    0.0000 C   0  0  0  0  0  0  0  0  0  0  0  0
    0.8680   -0.4979    0.0000 C   0  0  0  0  0  0  0  0  0  0  0  0
    0.0000    0.0000    0.0000 C   0  0  0  0  0  0  0  0  0  0  0  0
   -0.0000    1.0058    0.0000 C   0  0  0  0  0  0  0  0  0  0  0  0
    0.8680    1.5137    0.0000 C   0  0  0  0  0  0  0  0  0  0  0  0
    1.7360    1.0058    0.0000 N   0  0  0  0  0  0  0  0  0  0  0  0
    4.2858    0.5023    0.0000 C   0  0  0  0  0  0  0  0  0  0  0  0
    4.7870    1.3676    0.0000 C   0  0  0  0  0  0  0  0  0  0  0  0
    5.7870    1.3720    0.0000 C   0  0  0  0  0  0  0  0  0  0  0  0
    6.2910    0.5023    0.0000 C   0  0  0  0  0  0  0  0  0  0  0  0
    5.7948   -0.3719    0.0000 C   0  0  0  0  0  0  0  0  0  0  0  0
    4.7897   -0.3675    0.0000 C   0  0  0  0  0  0  0  0  0  0  0  0
    4.2885   -1.2328    0.0000 O   0  0  0  0  0  0  0  0  0  0  0  0
    4.7872   -2.0996    0.0000 C   0  0  0  0  0  0  0  0  0  0  0  0
    5.7872   -2.1010    0.0000 O   0  0  0  0  0  0  0  0  0  0  0  0
    4.2860   -2.9649    0.0000 C   0  0  0  0  0  0  0  0  0  0  0  0
    3.2859   -2.9649    0.0000 C   0  0  0  0  0  0  0  0  0  0  0  0
    2.7809   -3.8280    0.0000 C   0  0  0  0  0  0  0  0  0  0  0  0
    3.2810   -4.7000    0.0000 C   0  0  0  0  0  0  0  0  0  0  0  0
    2.7759   -5.5631    0.0000 Cl  0  0  0  0  0  0  0  0  0  0  0  0
    4.2861   -4.7088    0.0000 C   0  0  0  0  0  0  0  0  0  0  0  0
    4.7860   -3.8368    0.0000 C   0  0  0  0  0  0  0  0  0  0  0  0
    5.7860   -3.8368    0.0000 Cl  0  0  0  0  0  0  0  0  0  0  0  0
  1  2  1  0  0  0  0
  2  3  1  0  0  0  0
  2  4  1  0  0  0  0
  2  5  1  0  0  0  0
  5  6  1  0  0  0  0
  6  7  1  0  0  0  0
  6  8  1  0  0  0  0
  6  9  1  0  0  0  0
  9 10  1  0  0  0  0
 10 18  1  0  0  0  0
 10 11  2  0  0  0  0
 11 12  1  0  0  0  0
 12 13  2  0  0  0  0
 13 18  1  0  0  0  0
 13 14  1  0  0  0  0
 14 15  2  0  0  0  0
 15 16  1  0  0  0  0
 16 17  2  0  0  0  0
 17 18  1  0  0  0  0
 11 19  1  0  0  0  0
 19 24  1  0  0  0  0
 19 20  2  0  0  0  0
 20 21  1  0  0  0  0
 21 22  2  0  0  0  0
 22 23  1  0  0  0  0
 23 24  2  0  0  0  0
 24 25  1  0  0  0  0
 25 26  1  0  0  0  0
 26 27  2  0  0  0  0
 26 28  1  0  0  0  0
 28 34  1  0  0  0  0
 28 29  2  0  0  0  0
 29 30  1  0  0  0  0
 30 31  2  0  0  0  0
 31 32  1  0  0  0  0
 31 33  1  0  0  0  0
 33 34  2  0  0  0  0
 34 35  1  0  0  0  0
M  END
> <JC_XSMILES>
CC(C)(C)CC(C)(C)NC1=C(N=C2C=CC=CN12)C3=CC=CC=C3OC(=O)C4=CC=C(Cl)C=C4Cl

> <GNF-Pf identifier>
GNF-Pf-5339

> <PF proliferation inhibition 3D7 EC50 uM>
0.279

> <W2 Pf proliferation inhibition EC50 uM >
0.01032

> <Huh7 cytotox for Pf inhibitiors CC50 uM>
>10

> <Powder data?>
No

> <IFI value>
0.028301887

> <Salt>
No salt

> <Equiv of salt>
0

$$$$

  -OEChem-06281415292D

 38 42  0     0  0  0  0  0  0999 V2000
    7.3440    0.1574    0.0000 C   0  0  0  0  0  0  0  0  0  0  0  0
    7.5589    1.1340    0.0000 C   0  0  0  0  0  0  0  0  0  0  0  0
    8.5122    1.4362    0.0000 O   0  0  0  0  0  0  0  0  0  0  0  0
    6.8207    1.8085    0.0000 N   0  0  0  0  0  0  0  0  0  0  0  0
    7.0356    2.7851    0.0000 C   0  0  0  0  0  0  0  0  0  0  0  0
    7.9947    3.0860    0.0000 C   0  0  0  0  0  0  0  0  0  0  0  0
    8.2021    4.0695    0.0000 C   0  0  0  0  0  0  0  0  0  0  0  0
    7.4579    4.7453    0.0000 C   0  0  0  0  0  0  0  0  0  0  0  0
    6.5064    4.4376    0.0000 C   0  0  0  0  0  0  0  0  0  0  0  0
    6.2915    3.4609    0.0000 C   0  0  0  0  0  0  0  0  0  0  0  0
    5.3387    3.1574    0.0000 C   0  0  0  0  0  0  0  0  0  0  0  0
    4.5994    3.8307    0.0000 O   0  0  0  0  0  0  0  0  0  0  0  0
    5.1252    2.1804    0.0000 N   0  0  0  0  0  0  0  0  0  0  0  0
    4.1724    1.8769    0.0000 C   0  0  0  0  0  0  0  0  0  0  0  0
    3.9606    0.8942    0.0000 C   0  0  0  0  0  0  0  0  0  0  0  0
    3.0078    0.5906    0.0000 C   0  0  0  0  0  0  0  0  0  0  0  0
    2.2646    1.2597    0.0000 C   0  0  0  0  0  0  0  0  0  0  0  0
    2.4763    2.2423    0.0000 C   0  0  0  0  0  0  0  0  0  0  0  0
    3.4313    2.5559    0.0000 C   0  0  0  0  0  0  0  0  0  0  0  0
    1.3131    0.9519    0.0000 C   0  0  0  0  0  0  0  0  0  0  0  0
    1.0014    0.0000    0.0000 N   0  0  0  0  0  0  0  0  0  0  0  0
    0.0000    0.0000    0.0000 C   0  0  0  0  0  0  0  0  0  0  0  0
   -0.3065    0.9519    0.0000 C   0  0  0  0  0  0  0  0  0  0  0  0
    0.5007    1.5426    0.0000 N   0  0  0  0  0  0  0  0  0  0  0  0
    9.1535    4.3773    0.0000 C   0  0  0  0  0  0  0  0  0  0  0  0
    9.8958    3.7071    0.0000 O   0  0  0  0  0  0  0  0  0  0  0  0
    9.3628    5.3551    0.0000 N   0  0  0  0  0  0  0  0  0  0  0  0
   10.3142    5.6629    0.0000 C   0  0  0  0  0  0  0  0  0  0  0  0
   10.5216    6.6465    0.0000 C   0  0  0  0  0  0  0  0  0  0  0  0
   11.4731    6.9543    0.0000 C   0  0  0  0  0  0  0  0  0  0  0  0
   12.2193    6.2885    0.0000 C   0  0  0  0  0  0  0  0  0  0  0  0
   12.0119    5.3049    0.0000 C   0  0  0  0  0  0  0  0  0  0  0  0
   11.0583    4.9871    0.0000 C   0  0  0  0  0  0  0  0  0  0  0  0
   13.1694    6.6004    0.0000 C   0  0  0  0  0  0  0  0  0  0  0  0
   13.4769    7.5537    0.0000 N   0  0  0  0  0  0  0  0  0  0  0  0
   14.4783    7.5581    0.0000 C   0  0  0  0  0  0  0  0  0  0  0  0
   14.7890    6.6075    0.0000 C   0  0  0  0  0  0  0  0  0  0  0  0
   13.9844    6.0133    0.0000 N   0  0  0  0  0  0  0  0  0  0  0  0
  1  2  1  0  0  0  0
  2  3  2  0  0  0  0
  2  4  1  0  0  0  0
  4  5  1  0  0  0  0
  5 10  1  0  0  0  0
  5  6  2  0  0  0  0
  6  7  1  0  0  0  0
  7  8  2  0  0  0  0
  8  9  1  0  0  0  0
  9 10  2  0  0  0  0
 10 11  1  0  0  0  0
 11 12  2  0  0  0  0
 11 13  1  0  0  0  0
 13 14  1  0  0  0  0
 14 19  1  0  0  0  0
 14 15  2  0  0  0  0
 15 16  1  0  0  0  0
 16 17  2  0  0  0  0
 17 18  1  0  0  0  0
 18 19  2  0  0  0  0
 17 20  1  0  0  0  0
 20 24  1  0  0  0  0
 20 21  2  0  0  0  0
 21 22  1  0  0  0  0
 22 23  1  0  0  0  0
 23 24  1  0  0  0  0
  7 25  1  0  0  0  0
 25 26  2  0  0  0  0
 25 27  1  0  0  0  0
 27 28  1  0  0  0  0
 28 33  1  0  0  0  0
 28 29  2  0  0  0  0
 29 30  1  0  0  0  0
 30 31  2  0  0  0  0
 31 32  1  0  0  0  0
 32 33  2  0  0  0  0
 31 34  1  0  0  0  0
 34 38  1  0  0  0  0
 34 35  2  0  0  0  0
 35 36  1  0  0  0  0
 36 37  1  0  0  0  0
 37 38  1  0  0  0  0
M  END
> <JC_XSMILES>
CC(=O)NC1=CC(=CC=C1C(=O)NC2=CC=C(C=C2)C3=NCCN3)C(=O)NC4=CC=C(C=C4)C5=NCCN5

> <GNF-Pf identifier>
GNF-Pf-5340

> <PF proliferation inhibition 3D7 EC50 uM>
0.323

> <W2 Pf proliferation inhibition EC50 uM >
0.103

> <Huh7 cytotox for Pf inhibitiors CC50 uM>
>100

> <Powder data?>
Yes

> <IFI value>
0

> <Salt>
No salt

> <Equiv of salt>
0

$$$$

  -OEChem-06281415292D

 34 38  0     1  0  0  0  0  0999 V2000
    6.0834   -5.1641    0.0000 C   0  0  0  0  0  0  0  0  0  0  0  0
    6.5871   -4.3003    0.0000 C   0  0  0  0  0  0  0  0  0  0  0  0
    6.0909   -3.4321    0.0000 N   0  0  0  0  0  0  0  0  0  0  0  0
    6.5921   -2.5610    0.0000 C   0  0  0  0  0  0  0  0  0  0  0  0
    6.0934   -1.6884    0.0000 C   0  0  0  0  0  0  0  0  0  0  0  0
    5.0934   -1.6868    0.0000 N   0  0  0  0  0  0  0  0  0  0  0  0
    4.5872   -2.5493    0.0000 C   0  0  0  0  0  0  0  0  0  0  0  0
    5.0860   -3.4219    0.0000 C   0  0  0  0  0  0  0  0  0  0  0  0
    4.5971   -0.8186    0.0000 C   0  0  0  0  0  0  0  0  0  0  0  0
    3.5972   -0.8143    0.0000 C   0  0  0  0  0  0  0  0  0  0  0  0
    3.0933   -1.6841    0.0000 C   0  0  0  0  0  0  0  0  0  0  0  0
    2.0933   -1.6798    0.0000 C   0  0  0  0  0  0  0  0  0  0  0  0
    1.5920   -0.8145    0.0000 C   0  0  0  0  0  0  0  0  0  0  0  0
    2.0958    0.0553    0.0000 C   0  0  0  0  0  0  0  0  0  0  0  0
    3.1009    0.0598    0.0000 C   0  0  0  0  0  0  0  0  0  0  0  0
    0.5920   -0.8146    0.0000 C   0  0  0  0  0  0  0  0  0  0  0  0
    0.0000    0.0000    0.0000 C   0  0  0  0  0  0  0  0  0  0  0  0
   -0.9578   -0.3110    0.0000 C   0  0  0  0  0  0  0  0  0  0  0  0
   -1.8258    0.1969    0.0000 C   0  0  0  0  0  0  0  0  0  0  0  0
   -1.8258    1.1969    0.0000 N   0  0  0  0  0  0  0  0  0  0  0  0
   -2.6918    1.6969    0.0000 C   0  0  2  0  0  0  0  0  0  0  0  0
   -3.1918    0.8309    0.0000 H   0  0  0  0  0  0  0  0  0  0  0  0
   -2.1918    2.5629    0.0000 C   0  0  0  0  0  0  0  0  0  0  0  0
   -3.5579    2.1969    0.0000 C   0  0  0  0  0  0  0  0  0  0  0  0
   -4.4269    1.6917    0.0000 C   0  0  0  0  0  0  0  0  0  0  0  0
   -5.2930    2.1917    0.0000 C   0  0  0  0  0  0  0  0  0  0  0  0
   -5.2988    3.1917    0.0000 C   0  0  0  0  0  0  0  0  0  0  0  0
   -4.4298    3.6969    0.0000 C   0  0  0  0  0  0  0  0  0  0  0  0
   -3.5549    3.2020    0.0000 C   0  0  0  0  0  0  0  0  0  0  0  0
   -2.6938   -0.3110    0.0000 N   0  0  0  0  0  0  0  0  0  0  0  0
   -2.6938   -1.3168    0.0000 C   0  0  0  0  0  0  0  0  0  0  0  0
   -1.8258   -1.8147    0.0000 N   0  0  0  0  0  0  0  0  0  0  0  0
   -0.9578   -1.3181    0.0000 C   0  0  0  0  0  0  0  0  0  0  0  0
    0.0000   -1.6294    0.0000 N   0  0  0  0  0  0  0  0  0  0  0  0
  1  2  1  0  0  0  0
  2  3  1  0  0  0  0
  3  8  1  0  0  0  0
  3  4  1  0  0  0  0
  4  5  1  0  0  0  0
  5  6  1  0  0  0  0
  6  7  1  0  0  0  0
  7  8  1  0  0  0  0
  6  9  1  0  0  0  0
  9 10  1  0  0  0  0
 10 15  1  0  0  0  0
 10 11  2  0  0  0  0
 11 12  1  0  0  0  0
 12 13  2  0  0  0  0
 13 14  1  0  0  0  0
 14 15  2  0  0  0  0
 13 16  1  0  0  0  0
 16 34  1  0  0  0  0
 16 17  2  0  0  0  0
 17 18  1  0  0  0  0
 18 33  1  0  0  0  0
 18 19  2  0  0  0  0
 19 20  1  0  0  0  0
 20 21  1  0  0  0  0
 21 22  1  6  0  0  0
 21 23  1  0  0  0  0
 21 24  1  0  0  0  0
 24 29  1  0  0  0  0
 24 25  2  0  0  0  0
 25 26  1  0  0  0  0
 26 27  2  0  0  0  0
 27 28  1  0  0  0  0
 28 29  2  0  0  0  0
 19 30  1  0  0  0  0
 30 31  2  0  0  0  0
 31 32  1  0  0  0  0
 32 33  2  0  0  0  0
 33 34  1  0  0  0  0
M  END
> <JC_XSMILES>
CCN1CCN(CC1)CC2=CC=C(C=C2)C3=CC4=C(N[C@H](C)C5=CC=CC=C5)N=CN=C4N3

> <GNF-Pf identifier>
GNF-Pf-5343

> <PF proliferation inhibition 3D7 EC50 uM>
1.378

> <W2 Pf proliferation inhibition EC50 uM >
0.02849

> <Huh7 cytotox for Pf inhibitiors CC50 uM>
27.83

> <Powder data?>
Yes

> <IFI value>
0.066666667

> <Salt>
No salt

> <Equiv of salt>
0

$$$$

  -OEChem-06281415292D

 30 33  0     1  0  0  0  0  0999 V2000
    6.0757   -0.5219    0.0000 C   0  0  0  0  0  0  0  0  0  0  0  0
    5.2125   -0.0170    0.0000 O   0  0  0  0  0  0  0  0  0  0  0  0
    4.3437   -0.5122    0.0000 C   0  0  0  0  0  0  0  0  0  0  0  0
    4.3381   -1.5121    0.0000 O   0  0  0  0  0  0  0  0  0  0  0  0
    3.4805   -0.0073    0.0000 C   0  0  0  0  0  0  0  0  0  0  0  0
    3.4848    1.0014    0.0000 C   0  0  0  0  0  0  0  0  0  0  0  0
    4.3535    1.4968    0.0000 C   0  0  0  0  0  0  0  0  0  0  0  0
    2.6125    1.5125    0.0000 N   0  0  0  0  0  0  0  0  0  0  0  0
    1.7414    1.0089    0.0000 C   0  0  0  0  0  0  0  0  0  0  0  0
    1.7371   -0.0000    0.0000 C   0  0  0  0  0  0  0  0  0  0  0  0
    2.6039   -0.5053    0.0000 C   0  0  3  0  0  0  0  0  0  0  0  0
    2.5941   -2.2553    0.0000 C   0  0  0  0  0  0  0  0  0  0  0  0
    3.4633   -2.7602    0.0000 C   0  0  0  0  0  0  0  0  0  0  0  0
    3.4578   -3.7602    0.0000 C   0  0  0  0  0  0  0  0  0  0  0  0
    2.5919   -4.2604    0.0000 C   0  0  0  0  0  0  0  0  0  0  0  0
    2.5907   -5.2604    0.0000 F   0  0  0  0  0  0  0  0  0  0  0  0
    1.7227   -3.7555    0.0000 C   0  0  0  0  0  0  0  0  0  0  0  0
    1.7194   -2.7504    0.0000 C   0  0  0  0  0  0  0  0  0  0  0  0
    0.8707   -0.4993    0.0000 C   0  0  0  0  0  0  0  0  0  0  0  0
    0.8718   -1.4993    0.0000 O   0  0  0  0  0  0  0  0  0  0  0  0
    0.0000    0.0000    0.0000 C   0  0  0  0  0  0  0  0  0  0  0  0
    0.0000    1.0089    0.0000 C   0  0  3  0  0  0  0  0  0  0  0  0
    0.8707    1.5185    0.0000 C   0  0  0  0  0  0  0  0  0  0  0  0
   -0.8675    1.5063    0.0000 C   0  0  0  0  0  0  0  0  0  0  0  0
   -1.7350    0.9986    0.0000 C   0  0  0  0  0  0  0  0  0  0  0  0
   -2.6026    1.4960    0.0000 C   0  0  0  0  0  0  0  0  0  0  0  0
   -2.6114    2.4960    0.0000 C   0  0  0  0  0  0  0  0  0  0  0  0
   -3.4811    2.9896    0.0000 Cl  0  0  0  0  0  0  0  0  0  0  0  0
   -1.7439    3.0037    0.0000 C   0  0  0  0  0  0  0  0  0  0  0  0
   -0.8675    2.5115    0.0000 C   0  0  0  0  0  0  0  0  0  0  0  0
  1  2  1  0  0  0  0
  2  3  1  0  0  0  0
  3  4  2  0  0  0  0
  3  5  1  0  0  0  0
  5 11  1  0  0  0  0
  5  6  2  0  0  0  0
  6  7  1  0  0  0  0
  6  8  1  0  0  0  0
  8  9  1  0  0  0  0
  9 23  1  0  0  0  0
  9 10  2  0  0  0  0
 10 11  1  0  0  0  0
 11 12  1  0  0  0  0
 12 18  1  0  0  0  0
 12 13  2  0  0  0  0
 13 14  1  0  0  0  0
 14 15  2  0  0  0  0
 15 16  1  0  0  0  0
 15 17  1  0  0  0  0
 17 18  2  0  0  0  0
 10 19  1  0  0  0  0
 19 20  2  0  0  0  0
 19 21  1  0  0  0  0
 21 22  1  0  0  0  0
 22 23  1  0  0  0  0
 22 24  1  0  0  0  0
 24 30  1  0  0  0  0
 24 25  2  0  0  0  0
 25 26  1  0  0  0  0
 26 27  2  0  0  0  0
 27 28  1  0  0  0  0
 27 29  1  0  0  0  0
 29 30  2  0  0  0  0
M  END
> <JC_XSMILES>
COC(=O)C1=C(C)NC2=C(C1C3=CC=C(F)C=C3)C(=O)CC(C2)C4=CC=C(Cl)C=C4

> <GNF-Pf identifier>
GNF-Pf-5359

> <PF proliferation inhibition 3D7 EC50 uM>
0.1879

> <W2 Pf proliferation inhibition EC50 uM >
0.0982

> <Huh7 cytotox for Pf inhibitiors CC50 uM>
>100

> <Powder data?>
Yes

> <IFI value>
0.036144578

> <Salt>
No salt

> <Equiv of salt>
0

$$$$

  -OEChem-06281415292D

 33 36  0     0  0  0  0  0  0999 V2000
   -0.8675    0.4975    0.0000 C   0  0  0  0  0  0  0  0  0  0  0  0
    0.0000    0.0000    0.0000 C   0  0  0  0  0  0  0  0  0  0  0  0
    0.8680    0.5079    0.0000 C   0  0  0  0  0  0  0  0  0  0  0  0
    1.7360    0.0000    0.0000 C   0  0  0  0  0  0  0  0  0  0  0  0
    2.6938    0.3110    0.0000 N   0  0  0  0  0  0  0  0  0  0  0  0
    3.2858   -0.5036    0.0000 C   0  0  0  0  0  0  0  0  0  0  0  0
    2.6938   -1.3184    0.0000 C   0  0  0  0  0  0  0  0  0  0  0  0
    3.0028   -2.2695    0.0000 N   0  0  0  0  0  0  0  0  0  0  0  0
    2.3336   -3.0126    0.0000 C   0  0  0  0  0  0  0  0  0  0  0  0
    1.5905   -2.3434    0.0000 C   0  0  0  0  0  0  0  0  0  0  0  0
    3.0767   -3.6818    0.0000 C   0  0  0  0  0  0  0  0  0  0  0  0
    1.5306   -3.9043    0.0000 C   0  0  0  0  0  0  0  0  0  0  0  0
    0.3568   -3.6548    0.0000 C   0  0  0  0  0  0  0  0  0  0  0  0
    0.5648   -2.6766    0.0000 C   0  0  0  0  0  0  0  0  0  0  0  0
    0.1489   -4.6329    0.0000 C   0  0  0  0  0  0  0  0  0  0  0  0
   -0.6213   -3.4468    0.0000 C   0  0  0  0  0  0  0  0  0  0  0  0
    1.7360   -1.0071    0.0000 N   0  0  0  0  0  0  0  0  0  0  0  0
    0.8680   -1.5037    0.0000 C   0  0  0  0  0  0  0  0  0  0  0  0
    0.0000   -1.0058    0.0000 C   0  0  0  0  0  0  0  0  0  0  0  0
    4.2858   -0.5035    0.0000 C   0  0  0  0  0  0  0  0  0  0  0  0
    4.7871   -1.3688    0.0000 C   0  0  0  0  0  0  0  0  0  0  0  0
    5.7871   -1.3731    0.0000 C   0  0  0  0  0  0  0  0  0  0  0  0
    6.2910   -0.5033    0.0000 C   0  0  0  0  0  0  0  0  0  0  0  0
    5.7947    0.3708    0.0000 C   0  0  0  0  0  0  0  0  0  0  0  0
    4.7896    0.3663    0.0000 C   0  0  0  0  0  0  0  0  0  0  0  0
    4.2883    1.2315    0.0000 O   0  0  0  0  0  0  0  0  0  0  0  0
    4.7869    2.0983    0.0000 C   0  0  0  0  0  0  0  0  0  0  0  0
    5.7869    2.0999    0.0000 O   0  0  0  0  0  0  0  0  0  0  0  0
    4.2856    2.9636    0.0000 C   0  0  0  0  0  0  0  0  0  0  0  0
    4.6907    3.8796    0.0000 C   0  0  0  0  0  0  0  0  0  0  0  0
    3.9463    4.5495    0.0000 C   0  0  0  0  0  0  0  0  0  0  0  0
    3.0817    4.0470    0.0000 C   0  0  0  0  0  0  0  0  0  0  0  0
    3.2866    3.0680    0.0000 C   0  0  0  0  0  0  0  0  0  0  0  0
  1  2  1  0  0  0  0
  2 19  1  0  0  0  0
  2  3  2  0  0  0  0
  3  4  1  0  0  0  0
  4 17  1  0  0  0  0
  4  5  2  0  0  0  0
  5  6  1  0  0  0  0
  6  7  2  0  0  0  0
  7  8  1  0  0  0  0
  8  9  1  0  0  0  0
  9 10  1  0  0  0  0
  9 11  1  0  0  0  0
  9 12  1  0  0  0  0
 12 13  1  0  0  0  0
 13 14  1  0  0  0  0
 13 15  1  0  0  0  0
 13 16  1  0  0  0  0
  7 17  1  0  0  0  0
 17 18  1  0  0  0  0
 18 19  2  0  0  0  0
  6 20  1  0  0  0  0
 20 25  1  0  0  0  0
 20 21  2  0  0  0  0
 21 22  1  0  0  0  0
 22 23  2  0  0  0  0
 23 24  1  0  0  0  0
 24 25  2  0  0  0  0
 25 26  1  0  0  0  0
 26 27  1  0  0  0  0
 27 28  2  0  0  0  0
 27 29  1  0  0  0  0
 29 33  1  0  0  0  0
 29 30  1  0  0  0  0
 30 31  1  0  0  0  0
 31 32  1  0  0  0  0
 32 33  1  0  0  0  0
M  END
> <JC_XSMILES>
CC1=CC2=NC(=C(NC(C)(C)CC(C)(C)C)N2C=C1)C3=CC=CC=C3OC(=O)C4CCCC4

> <GNF-Pf identifier>
GNF-Pf-5415

> <PF proliferation inhibition 3D7 EC50 uM>
1.01

> <W2 Pf proliferation inhibition EC50 uM >
<0.00829

> <Huh7 cytotox for Pf inhibitiors CC50 uM>
>10

> <Powder data?>
No

> <IFI value>
0.037383178

> <Salt>
No salt

> <Equiv of salt>
0

$$$$

  -OEChem-06281415292D

 25 28  0     1  0  0  0  0  0999 V2000
   -1.7320   -0.0025    0.0000 C   0  0  0  0  0  0  0  0  0  0  0  0
   -0.8653   -0.5013    0.0000 O   0  0  0  0  0  0  0  0  0  0  0  0
    0.0000    0.0000    0.0000 C   0  0  0  0  0  0  0  0  0  0  0  0
   -0.0000    1.0089    0.0000 C   0  0  0  0  0  0  0  0  0  0  0  0
    0.8707    1.5185    0.0000 C   0  0  0  0  0  0  0  0  0  0  0  0
    1.7414    1.0089    0.0000 C   0  0  0  0  0  0  0  0  0  0  0  0
    2.6125    1.5125    0.0000 N   0  0  0  0  0  0  0  0  0  0  0  0
    3.4848    1.0014    0.0000 C   0  0  0  0  0  0  0  0  0  0  0  0
    3.4805   -0.0073    0.0000 C   0  0  0  0  0  0  0  0  0  0  0  0
    2.6039   -0.5053    0.0000 C   0  0  0  0  0  0  0  0  0  0  0  0
    2.5983   -1.5053    0.0000 C   0  0  1  0  0  0  0  0  0  0  0  0
    3.5983   -1.5109    0.0000 H   0  0  0  0  0  0  0  0  0  0  0  0
    1.5983   -1.4997    0.0000 O   0  0  0  0  0  0  0  0  0  0  0  0
    2.5927   -2.5053    0.0000 C   0  0  3  0  0  0  0  0  0  0  0  0
    1.3717   -3.1964    0.0000 C   0  0  0  0  0  0  0  0  0  0  0  0
    1.3638   -4.5924    0.0000 C   0  0  3  0  0  0  0  0  0  0  0  0
    2.3079   -4.9223    0.0000 C   0  0  0  0  0  0  0  0  0  0  0  0
    3.5429   -4.2556    0.0000 C   0  0  0  0  0  0  0  0  0  0  0  0
    3.8061   -3.2100    0.0000 N   0  0  3  0  0  0  0  0  0  0  0  0
    3.7858   -4.6131    0.0000 C   0  0  0  0  0  0  0  0  0  0  0  0
    2.5647   -5.3042    0.0000 C   0  0  3  0  0  0  0  0  0  0  0  0
    2.5547   -6.3041    0.0000 C   0  0  0  0  0  0  0  0  0  0  0  0
    3.4157   -6.8128    0.0000 C   0  0  0  0  0  0  0  0  0  0  0  0
    1.7371   -0.0000    0.0000 C   0  0  0  0  0  0  0  0  0  0  0  0
    0.8707   -0.4993    0.0000 C   0  0  0  0  0  0  0  0  0  0  0  0
  1  2  1  0  0  0  0
  2  3  1  0  0  0  0
  3 25  1  0  0  0  0
  3  4  2  0  0  0  0
  4  5  1  0  0  0  0
  5  6  2  0  0  0  0
  6 24  1  0  0  0  0
  6  7  1  0  0  0  0
  7  8  2  0  0  0  0
  8  9  1  0  0  0  0
  9 10  2  0  0  0  0
 10 11  1  0  0  0  0
 11 12  1  1  0  0  0
 11 13  1  0  0  0  0
 11 14  1  0  0  0  0
 14 19  1  0  0  0  0
 14 15  1  0  0  0  0
 15 16  1  0  0  0  0
 16 21  1  0  0  0  0
 16 17  1  0  0  0  0
 17 18  1  0  0  0  0
 18 19  1  0  0  0  0
 19 20  1  0  0  0  0
 20 21  1  0  0  0  0
 21 22  1  0  0  0  0
 22 23  2  0  0  0  0
 10 24  1  0  0  0  0
 24 25  2  0  0  0  0
M  END
> <JC_XSMILES>
COC1=CC=C2N=CC=C([C@@H](O)C3CC4CCN3CC4C=C)C2=C1

> <GNF-Pf identifier>
GNF-Pf-5423

> <PF proliferation inhibition 3D7 EC50 uM>
0.01123

> <W2 Pf proliferation inhibition EC50 uM >
0.0453

> <Huh7 cytotox for Pf inhibitiors CC50 uM>
56.51

> <Powder data?>
Yes

> <IFI value>
0.026315789

> <Salt>
No salt

> <Equiv of salt>
0

$$$$

  -OEChem-06281415292D

 86 92  0     1  0  0  0  0  0999 V2000
   -5.0359   -9.1060    0.0000 C   0  0  0  0  0  0  0  0  0  0  0  0
   -5.5381   -8.2413    0.0000 O   0  0  0  0  0  0  0  0  0  0  0  0
   -5.0403   -7.3739    0.0000 C   0  0  1  0  0  0  0  0  0  0  0  0
   -6.6857   -6.7780    0.0000 H   0  0  0  0  0  0  0  0  0  0  0  0
   -4.2720   -8.0140    0.0000 C   0  0  0  0  0  0  0  0  0  0  0  0
   -3.3315   -7.6741    0.0000 C   0  0  0  0  0  0  0  0  0  0  0  0
   -3.1576   -6.6841    0.0000 C   0  0  1  0  0  0  0  0  0  0  0  0
   -2.2183   -7.0274    0.0000 H   0  0  0  0  0  0  0  0  0  0  0  0
   -3.9241   -6.0340    0.0000 O   0  0  0  0  0  0  0  0  0  0  0  0
   -4.8664   -6.3839    0.0000 C   0  0  2  0  0  0  0  0  0  0  0  0
   -5.8664   -6.3865    0.0000 H   0  0  0  0  0  0  0  0  0  0  0  0
   -5.0445   -5.3999    0.0000 C   0  0  0  0  0  0  0  0  0  0  0  0
   -2.6547   -5.8197    0.0000 O   0  0  0  0  0  0  0  0  0  0  0  0
   -1.7747   -4.3071    0.0000 C   0  0  1  0  0  0  0  0  0  0  0  0
   -3.4184   -3.7063    0.0000 H   0  0  0  0  0  0  0  0  0  0  0  0
   -1.0120   -4.9539    0.0000 C   0  0  2  0  0  0  0  0  0  0  0  0
   -1.7808   -5.5934    0.0000 H   0  0  0  0  0  0  0  0  0  0  0  0
   -0.5149   -5.8216    0.0000 C   0  0  0  0  0  0  0  0  0  0  0  0
   -0.0666   -4.6123    0.0000 C   0  0  2  0  0  0  0  0  0  0  0  0
    0.2298   -6.3370    0.0000 O   0  0  0  0  0  0  0  0  0  0  0  0
    0.1160   -3.6239    0.0000 O   0  0  0  0  0  0  0  0  0  0  0  0
   -0.6562   -2.9806    0.0000 C   0  0  1  0  0  0  0  0  0  0  0  0
   -1.5307   -1.4647    0.0000 H   0  0  0  0  0  0  0  0  0  0  0  0
    0.6825   -1.8535    0.0000 C   0  0  0  0  0  0  0  0  0  0  0  0
    0.5073   -0.8690    0.0000 C   0  0  2  0  0  0  0  0  0  0  0  0
   -0.4313   -1.2140    0.0000 H   0  0  0  0  0  0  0  0  0  0  0  0
    0.0000    0.0000    0.0000 C   0  0  0  0  0  0  0  0  0  0  0  0
    0.5073    0.8746    0.0000 C   0  0  1  0  0  0  0  0  0  0  0  0
    0.8123    2.5978    0.0000 H   0  0  0  0  0  0  0  0  0  0  0  0
   -0.4319    1.2179    0.0000 O   0  0  0  0  0  0  0  0  0  0  0  0
   -1.1988    0.5761    0.0000 C   0  0  0  0  0  0  0  0  0  0  0  0
    1.5163    0.8746    0.0000 C   0  0  1  0  0  0  0  0  0  0  0  0
    1.3439    1.8596    0.0000 H   0  0  0  0  0  0  0  0  0  0  0  0
    2.4568    1.2143    0.0000 C   0  0  0  0  0  0  0  0  0  0  0  0
    2.0197   -0.0049    0.0000 C   0  0  2  0  0  0  0  0  0  0  0  0
    1.5163   -0.8690    0.0000 O   0  0  0  0  0  0  0  0  0  0  0  0
    2.6170   -0.8182    0.0000 O   0  0  0  0  0  0  0  0  0  0  0  0
    3.5750   -0.5016    0.0000 C   0  0  2  0  0  0  0  0  0  0  0  0
    5.3145   -0.3100    0.0000 C   0  0  0  0  0  0  0  0  0  0  0  0
    3.9474   -2.2115    0.0000 C   0  0  1  0  0  0  0  0  0  0  0  0
    2.9532   -2.3190    0.0000 H   0  0  0  0  0  0  0  0  0  0  0  0
    4.8963   -1.8958    0.0000 C   0  0  0  0  0  0  0  0  0  0  0  0
    5.4885   -2.7034    0.0000 C   0  0  0  0  0  0  0  0  0  0  0  0
    4.9053   -3.5178    0.0000 C   0  0  2  0  0  0  0  0  0  0  0  0
    4.2023   -5.1204    0.0000 H   0  0  0  0  0  0  0  0  0  0  0  0
    3.9483   -3.2120    0.0000 O   0  0  0  0  0  0  0  0  0  0  0  0
    6.4262   -4.3834    0.0000 C   0  0  1  0  0  0  0  0  0  0  0  0
    6.8254   -3.4666    0.0000 H   0  0  0  0  0  0  0  0  0  0  0  0
    5.8417   -5.1949    0.0000 C   0  0  0  0  0  0  0  0  0  0  0  0
    6.4358   -6.0011    0.0000 C   0  0  0  0  0  0  0  0  0  0  0  0
    7.3871   -5.6874    0.0000 C   0  0  1  0  0  0  0  0  0  0  0  0
    9.1264   -5.4947    0.0000 H   0  0  0  0  0  0  0  0  0  0  0  0
    7.3808   -4.6828    0.0000 O   0  0  0  0  0  0  0  0  0  0  0  0
    7.7595   -7.3973    0.0000 C   0  0  1  0  0  0  0  0  0  0  0  0
    9.3774   -6.7305    0.0000 H   0  0  0  0  0  0  0  0  0  0  0  0
    6.7550   -7.4355    0.0000 O   0  0  0  0  0  0  0  0  0  0  0  0
    6.2964   -8.3298    0.0000 C   0  0  2  0  0  0  0  0  0  0  0  0
    5.0087   -9.5149    0.0000 C   0  0  0  0  0  0  0  0  0  0  0  0
    5.5005   -7.7244    0.0000 O   0  0  0  0  0  0  0  0  0  0  0  0
    6.8366   -9.1775    0.0000 C   0  0  2  0  0  0  0  0  0  0  0  0
    7.2191  -10.8852    0.0000 H   0  0  0  0  0  0  0  0  0  0  0  0
    5.9132   -9.5613    0.0000 C   0  0  0  0  0  0  0  0  0  0  0  0
    7.8356   -9.1308    0.0000 C   0  0  1  0  0  0  0  0  0  0  0  0
    9.5042   -9.6583    0.0000 H   0  0  0  0  0  0  0  0  0  0  0  0
    7.7062  -10.1224    0.0000 O   0  0  0  0  0  0  0  0  0  0  0  0
    8.5003  -10.7302    0.0000 C   0  0  0  0  0  0  0  0  0  0  0  0
    8.2997   -8.2450    0.0000 C   0  0  2  0  0  0  0  0  0  0  0  0
    9.0375   -7.5700    0.0000 H   0  0  0  0  0  0  0  0  0  0  0  0
    9.0920   -8.8551    0.0000 C   0  0  0  0  0  0  0  0  0  0  0  0
    3.5700    0.5074    0.0000 C   0  0  2  0  0  0  0  0  0  0  0  0
    3.7730    1.4866    0.0000 H   0  0  0  0  0  0  0  0  0  0  0  0
    4.5650    0.4078    0.0000 O   0  0  0  0  0  0  0  0  0  0  0  0
    5.1488    1.2197    0.0000 C   0  0  0  0  0  0  0  0  0  0  0  0
    2.6088    0.8144    0.0000 C   0  0  1  0  0  0  0  0  0  0  0  0
    3.3126    2.4166    0.0000 H   0  0  0  0  0  0  0  0  0  0  0  0
    1.0889    1.6819    0.0000 C   0  0  0  0  0  0  0  0  0  0  0  0
   -1.6016   -3.3221    0.0000 C   0  0  1  0  0  0  0  0  0  0  0  0
   -2.6016   -3.3218    0.0000 C   0  0  0  0  0  0  0  0  0  0  0  0
   -1.7739   -2.3371    0.0000 O   0  0  0  0  0  0  0  0  0  0  0  0
   -2.7132   -1.9938    0.0000 C   0  0  0  0  0  0  0  0  0  0  0  0
    1.6833   -4.6233    0.0000 C   0  0  1  0  0  0  0  0  0  0  0  0
    1.6771   -5.6232    0.0000 H   0  0  0  0  0  0  0  0  0  0  0  0
    1.6896   -3.6233    0.0000 C   0  0  0  0  0  0  0  0  0  0  0  0
    2.6833   -4.6295    0.0000 C   0  0  0  0  0  0  0  0  0  0  0  0
    3.1779   -5.4987    0.0000 O   0  0  0  0  0  0  0  0  0  0  0  0
    3.1887   -3.7667    0.0000 O   0  0  0  0  0  0  0  0  0  0  0  0
  1  2  1  0  0  0  0
  2  3  1  0  0  0  0
  3  4  1  1  0  0  0
  3 10  1  0  0  0  0
  3  5  1  0  0  0  0
  5  6  1  0  0  0  0
  6  7  1  0  0  0  0
  7  8  1  6  0  0  0
  7  9  1  0  0  0  0
  9 10  1  0  0  0  0
 10 11  1  6  0  0  0
 10 12  1  0  0  0  0
  7 13  1  0  0  0  0
 13 14  1  0  0  0  0
 14 15  1  1  0  0  0
 14 77  1  0  0  0  0
 14 16  1  0  0  0  0
 16 17  1  6  0  0  0
 16 18  1  0  0  0  0
 16 19  1  0  0  0  0
 19 20  1  1  0  0  0
 19 21  1  0  0  0  0
 21 22  1  0  0  0  0
 22 23  1  1  0  0  0
 22 24  1  0  0  0  0
 24 25  1  0  0  0  0
 25 26  1  1  0  0  0
 25 36  1  0  0  0  0
 25 27  1  0  0  0  0
 27 28  1  0  0  0  0
 28 29  1  6  0  0  0
 28 30  1  0  0  0  0
 30 31  1  0  0  0  0
 28 32  1  0  0  0  0
 32 33  1  6  0  0  0
 32 34  1  0  0  0  0
 32 35  1  0  0  0  0
 35 74  1  0  0  0  0
 35 36  1  6  0  0  0
 35 37  1  1  0  0  0
 37 38  1  0  0  0  0
 38 39  1  6  0  0  0
 38 40  1  0  0  0  0
 40 41  1  6  0  0  0
 40 46  1  0  0  0  0
 40 42  1  0  0  0  0
 42 43  1  0  0  0  0
 43 44  1  0  0  0  0
 44 45  1  6  0  0  0
 44 46  1  0  0  0  0
 44 47  1  0  0  0  0
 47 48  1  1  0  0  0
 47 53  1  0  0  0  0
 47 49  1  0  0  0  0
 49 50  1  0  0  0  0
 50 51  1  0  0  0  0
 51 52  1  6  0  0  0
 51 53  1  0  0  0  0
 51 54  1  0  0  0  0
 54 55  1  1  0  0  0
 54 67  1  0  0  0  0
 54 56  1  0  0  0  0
 56 57  1  0  0  0  0
 57 58  1  0  0  0  0
 57 59  1  1  0  0  0
 57 60  1  0  0  0  0
 60 61  1  6  0  0  0
 60 62  1  0  0  0  0
 60 63  1  0  0  0  0
 63 64  1  1  0  0  0
 63 65  1  0  0  0  0
 65 66  1  0  0  0  0
 63 67  1  0  0  0  0
 67 68  1  6  0  0  0
 67 69  1  0  0  0  0
 38 70  1  0  0  0  0
 70 71  1  6  0  0  0
 70 72  1  0  0  0  0
 72 73  1  0  0  0  0
 70 74  1  0  0  0  0
 74 75  1  1  0  0  0
 74 76  1  0  0  0  0
 22 77  1  0  0  0  0
 77 78  1  6  0  0  0
 77 79  1  0  0  0  0
 79 80  1  0  0  0  0
 19 81  1  0  0  0  0
 81 82  1  6  0  0  0
 81 83  1  0  0  0  0
 81 84  1  0  0  0  0
 84 85  1  0  0  0  0
 84 86  2  0  0  0  0
M  END
> <JC_XSMILES>
CO[C@H]1CC[C@@H](O[C@@H]1C)O[C@H]2[C@H](C)[C@](O)(O[C@@H](C[C@@H]3C[C@@H](OC)[C@@H](C)[C@]4(O3)O[C@](C)([C@H]5CC[C@H](O5)[C@H]6CC[C@@H](O6)[C@H]7O[C@](C)(O)[C@H](C)[C@@H](OC)[C@@H]7C)[C@H](OC)[C@H]4C)[C@]2(C)OC)[C@@H](C)C(O)=O

> <GNF-Pf identifier>
GNF-Pf-5428

> <PF proliferation inhibition 3D7 EC50 uM>
0.01332

> <W2 Pf proliferation inhibition EC50 uM >
0.001926

> <Huh7 cytotox for Pf inhibitiors CC50 uM>
2.422

> <Powder data?>
No

> <IFI value>
0.155172414

> <Salt>
No salt

> <Equiv of salt>
0

$$$$

  -OEChem-06281415292D

 36 40  0     1  0  0  0  0  0999 V2000
   -3.4709    4.0049    0.0000 C   0  0  0  0  0  0  0  0  0  0  0  0
   -3.4723    3.0049    0.0000 O   0  0  0  0  0  0  0  0  0  0  0  0
   -2.6070    2.5037    0.0000 C   0  0  0  0  0  0  0  0  0  0  0  0
   -1.7373    3.0076    0.0000 C   0  0  0  0  0  0  0  0  0  0  0  0
   -0.8719    2.5064    0.0000 C   0  0  0  0  0  0  0  0  0  0  0  0
   -0.8675    1.5063    0.0000 C   0  0  0  0  0  0  0  0  0  0  0  0
   -1.7373    1.0024    0.0000 C   0  0  0  0  0  0  0  0  0  0  0  0
   -2.6115    1.4985    0.0000 C   0  0  0  0  0  0  0  0  0  0  0  0
    0.0000    1.0089    0.0000 C   0  0  3  0  0  0  0  0  0  0  0  0
    0.0000    0.0000    0.0000 C   0  0  0  0  0  0  0  0  0  0  0  0
    0.8707   -0.4993    0.0000 C   0  0  0  0  0  0  0  0  0  0  0  0
    0.8718   -1.4993    0.0000 O   0  0  0  0  0  0  0  0  0  0  0  0
    1.7371    0.0000    0.0000 C   0  0  0  0  0  0  0  0  0  0  0  0
    1.7414    1.0089    0.0000 C   0  0  0  0  0  0  0  0  0  0  0  0
    0.8707    1.5185    0.0000 C   0  0  0  0  0  0  0  0  0  0  0  0
    2.6125    1.5125    0.0000 N   0  0  0  0  0  0  0  0  0  0  0  0
    3.4848    1.0014    0.0000 C   0  0  0  0  0  0  0  0  0  0  0  0
    4.3535    1.4968    0.0000 C   0  0  0  0  0  0  0  0  0  0  0  0
    3.4805   -0.0073    0.0000 C   0  0  0  0  0  0  0  0  0  0  0  0
    2.6039   -0.5053    0.0000 C   0  0  3  0  0  0  0  0  0  0  0  0
    2.5941   -2.2553    0.0000 C   0  0  0  0  0  0  0  0  0  0  0  0
    1.7260   -2.7517    0.0000 C   0  0  0  0  0  0  0  0  0  0  0  0
    1.7161   -3.7517    0.0000 C   0  0  0  0  0  0  0  0  0  0  0  0
    2.5831   -4.2604    0.0000 C   0  0  0  0  0  0  0  0  0  0  0  0
    2.5731   -5.2603    0.0000 Cl  0  0  0  0  0  0  0  0  0  0  0  0
    3.4600   -3.7691    0.0000 C   0  0  0  0  0  0  0  0  0  0  0  0
    3.4611   -2.7640    0.0000 C   0  0  0  0  0  0  0  0  0  0  0  0
    4.3292   -2.2675    0.0000 Cl  0  0  0  0  0  0  0  0  0  0  0  0
    4.3437   -0.5122    0.0000 C   0  0  0  0  0  0  0  0  0  0  0  0
    4.3381   -1.5121    0.0000 O   0  0  0  0  0  0  0  0  0  0  0  0
    5.2125   -0.0170    0.0000 O   0  0  0  0  0  0  0  0  0  0  0  0
    6.0757   -0.5219    0.0000 C   0  0  0  0  0  0  0  0  0  0  0  0
    6.9934   -0.1205    0.0000 C   0  0  0  0  0  0  0  0  0  0  0  0
    7.6603   -0.8675    0.0000 C   0  0  0  0  0  0  0  0  0  0  0  0
    7.1543   -1.7301    0.0000 C   0  0  0  0  0  0  0  0  0  0  0  0
    6.1761   -1.5213    0.0000 C   0  0  0  0  0  0  0  0  0  0  0  0
  1  2  1  0  0  0  0
  2  3  1  0  0  0  0
  3  8  1  0  0  0  0
  3  4  2  0  0  0  0
  4  5  1  0  0  0  0
  5  6  2  0  0  0  0
  6  7  1  0  0  0  0
  7  8  2  0  0  0  0
  6  9  1  0  0  0  0
  9 15  1  0  0  0  0
  9 10  1  0  0  0  0
 10 11  1  0  0  0  0
 11 12  2  0  0  0  0
 11 13  1  0  0  0  0
 13 20  1  0  0  0  0
 13 14  2  0  0  0  0
 14 15  1  0  0  0  0
 14 16  1  0  0  0  0
 16 17  1  0  0  0  0
 17 18  1  0  0  0  0
 17 19  2  0  0  0  0
 19 20  1  0  0  0  0
 20 21  1  0  0  0  0
 21 27  1  0  0  0  0
 21 22  2  0  0  0  0
 22 23  1  0  0  0  0
 23 24  2  0  0  0  0
 24 25  1  0  0  0  0
 24 26  1  0  0  0  0
 26 27  2  0  0  0  0
 27 28  1  0  0  0  0
 19 29  1  0  0  0  0
 29 30  2  0  0  0  0
 29 31  1  0  0  0  0
 31 32  1  0  0  0  0
 32 36  1  0  0  0  0
 32 33  1  0  0  0  0
 33 34  1  0  0  0  0
 34 35  1  0  0  0  0
 35 36  1  0  0  0  0
M  END
> <JC_XSMILES>
COC1=CC=C(C=C1)C2CC(=O)C3=C(C2)NC(C)=C(C3C4=CC=C(Cl)C=C4Cl)C(=O)OC5CCCC5

> <GNF-Pf identifier>
GNF-Pf-5575

> <PF proliferation inhibition 3D7 EC50 uM>
0.1256

> <W2 Pf proliferation inhibition EC50 uM >
0.0347

> <Huh7 cytotox for Pf inhibitiors CC50 uM>
>100

> <Powder data?>
Yes

> <IFI value>
0.058823529

> <Salt>
No salt

> <Equiv of salt>
0

$$$$

  -OEChem-06281415292D

 20 21  0     0  0  0  0  0  0999 V2000
    6.0666    0.4872    0.0000 C   0  0  0  0  0  0  0  0  0  0  0  0
    5.1991   -0.0102    0.0000 C   0  0  0  0  0  0  0  0  0  0  0  0
    5.1961   -1.0102    0.0000 C   0  0  0  0  0  0  0  0  0  0  0  0
    4.3345    0.4923    0.0000 C   0  0  0  0  0  0  0  0  0  0  0  0
    3.4670   -0.0051    0.0000 N   0  0  0  0  0  0  0  0  0  0  0  0
    2.6025    0.4974    0.0000 C   0  0  0  0  0  0  0  0  0  0  0  0
    1.7350   -0.0000    0.0000 C   0  0  0  0  0  0  0  0  0  0  0  0
    0.8675    0.5077    0.0000 C   0  0  0  0  0  0  0  0  0  0  0  0
    0.0000    0.0000    0.0000 C   0  0  0  0  0  0  0  0  0  0  0  0
   -0.0000   -1.0052    0.0000 C   0  0  0  0  0  0  0  0  0  0  0  0
    0.8675   -1.5027    0.0000 C   0  0  0  0  0  0  0  0  0  0  0  0
    1.7350   -1.0052    0.0000 C   0  0  0  0  0  0  0  0  0  0  0  0
    2.6003   -1.5065    0.0000 O   0  0  0  0  0  0  0  0  0  0  0  0
   -0.8675    0.4974    0.0000 C   0  0  0  0  0  0  0  0  0  0  0  0
   -1.7350   -0.0103    0.0000 C   0  0  0  0  0  0  0  0  0  0  0  0
   -2.6026    0.4871    0.0000 C   0  0  0  0  0  0  0  0  0  0  0  0
   -2.6114    1.4871    0.0000 C   0  0  0  0  0  0  0  0  0  0  0  0
   -3.4811    1.9807    0.0000 F   0  0  0  0  0  0  0  0  0  0  0  0
   -1.7438    1.9949    0.0000 C   0  0  0  0  0  0  0  0  0  0  0  0
   -0.8675    1.5026    0.0000 C   0  0  0  0  0  0  0  0  0  0  0  0
  1  2  1  0  0  0  0
  2  3  1  0  0  0  0
  2  4  1  0  0  0  0
  4  5  1  0  0  0  0
  5  6  1  0  0  0  0
  6  7  1  0  0  0  0
  7 12  1  0  0  0  0
  7  8  2  0  0  0  0
  8  9  1  0  0  0  0
  9 10  2  0  0  0  0
 10 11  1  0  0  0  0
 11 12  2  0  0  0  0
 12 13  1  0  0  0  0
  9 14  1  0  0  0  0
 14 20  1  0  0  0  0
 14 15  2  0  0  0  0
 15 16  1  0  0  0  0
 16 17  2  0  0  0  0
 17 18  1  0  0  0  0
 17 19  1  0  0  0  0
 19 20  2  0  0  0  0
M  END
> <JC_XSMILES>
CC(C)CNCC1=CC(=CC=C1O)C2=CC=C(F)C=C2

> <GNF-Pf identifier>
GNF-Pf-5631

> <PF proliferation inhibition 3D7 EC50 uM>
0.1035

> <W2 Pf proliferation inhibition EC50 uM >
0.01

> <Huh7 cytotox for Pf inhibitiors CC50 uM>
58.55

> <Powder data?>
Yes

> <IFI value>
0.009803922

> <Salt>
No salt

> <Equiv of salt>
0

$$$$

  -OEChem-06281415292D

 24 28  0     1  0  0  0  0  0999 V2000
   -0.3284    2.6882    0.0000 O   0  0  0  0  0  0  0  0  0  0  0  0
    0.6468    2.9093    0.0000 C   0  0  0  0  0  0  0  0  0  0  0  0
    1.3989    2.2503    0.0000 C   0  0  0  0  0  0  0  0  0  0  0  0
    1.2633    1.2596    0.0000 C   0  0  3  0  0  0  0  0  0  0  0  0
    1.9533    0.5358    0.0000 S   0  0  0  0  0  0  0  0  0  0  0  0
    2.9494    0.6240    0.0000 C   0  0  0  0  0  0  0  0  0  0  0  0
    3.3955   -0.2710    0.0000 C   0  0  0  0  0  0  0  0  0  0  0  0
    4.3936   -0.3322    0.0000 C   0  0  0  0  0  0  0  0  0  0  0  0
    4.9457    0.5015    0.0000 C   0  0  0  0  0  0  0  0  0  0  0  0
    4.4996    1.3966    0.0000 C   0  0  0  0  0  0  0  0  0  0  0  0
    3.5015    1.4578    0.0000 C   0  0  0  0  0  0  0  0  0  0  0  0
    3.1939    2.4093    0.0000 N   0  0  0  0  0  0  0  0  0  0  0  0
    2.2581    2.7620    0.0000 C   0  0  0  0  0  0  0  0  0  0  0  0
    2.0370    3.7372    0.0000 C   0  0  0  0  0  0  0  0  0  0  0  0
    2.6138    4.5541    0.0000 C   0  0  0  0  0  0  0  0  0  0  0  0
    2.1947    5.4621    0.0000 C   0  0  0  0  0  0  0  0  0  0  0  0
    1.1989    5.5532    0.0000 C   0  0  0  0  0  0  0  0  0  0  0  0
    0.6221    4.7363    0.0000 C   0  0  0  0  0  0  0  0  0  0  0  0
    1.0411    3.8283    0.0000 C   0  0  0  0  0  0  0  0  0  0  0  0
    0.3118    0.9519    0.0000 C   0  0  0  0  0  0  0  0  0  0  0  0
    0.0000    0.0000    0.0000 C   0  0  0  0  0  0  0  0  0  0  0  0
   -1.0015    0.0000    0.0000 C   0  0  0  0  0  0  0  0  0  0  0  0
   -1.3080    0.9519    0.0000 C   0  0  0  0  0  0  0  0  0  0  0  0
   -0.5007    1.5428    0.0000 S   0  0  0  0  0  0  0  0  0  0  0  0
  1  2  1  0  0  0  0
  2 19  1  0  0  0  0
  2  3  2  0  0  0  0
  3 13  1  0  0  0  0
  3  4  1  0  0  0  0
  4  5  1  0  0  0  0
  5  6  1  0  0  0  0
  6 11  1  0  0  0  0
  6  7  2  0  0  0  0
  7  8  1  0  0  0  0
  8  9  2  0  0  0  0
  9 10  1  0  0  0  0
 10 11  2  0  0  0  0
 11 12  1  0  0  0  0
 12 13  2  0  0  0  0
 13 14  1  0  0  0  0
 14 19  1  0  0  0  0
 14 15  2  0  0  0  0
 15 16  1  0  0  0  0
 16 17  2  0  0  0  0
 17 18  1  0  0  0  0
 18 19  2  0  0  0  0
  4 20  1  0  0  0  0
 20 24  1  0  0  0  0
 20 21  2  0  0  0  0
 21 22  1  0  0  0  0
 22 23  2  0  0  0  0
 23 24  1  0  0  0  0
M  END
> <JC_XSMILES>
OC1=C2C(SC3=CC=CC=C3N=C2C4=CC=CC=C14)C5=CC=CS5

> <GNF-Pf identifier>
GNF-Pf-5669

> <PF proliferation inhibition 3D7 EC50 uM>
0.0428

> <W2 Pf proliferation inhibition EC50 uM >
<0.002468

> <Huh7 cytotox for Pf inhibitiors CC50 uM>
49.51

> <Powder data?>
Yes

> <IFI value>
0.022727273

> <Salt>
No salt

> <Equiv of salt>
0

$$$$

  -OEChem-06281415292D

 19 20  0     0  0  0  0  0  0999 V2000
    4.3456    1.4910    0.0000 C   0  0  0  0  0  0  0  0  0  0  0  0
    4.3412    0.4910    0.0000 O   0  0  0  0  0  0  0  0  0  0  0  0
    3.4730   -0.0052    0.0000 C   0  0  0  0  0  0  0  0  0  0  0  0
    3.4672   -1.0052    0.0000 C   0  0  0  0  0  0  0  0  0  0  0  0
    2.6011   -1.5052    0.0000 C   0  0  0  0  0  0  0  0  0  0  0  0
    1.7321   -1.0000    0.0000 C   0  0  0  0  0  0  0  0  0  0  0  0
    0.8660   -1.5000    0.0000 C   0  0  0  0  0  0  0  0  0  0  0  0
   -0.0000   -1.0000    0.0000 C   0  0  0  0  0  0  0  0  0  0  0  0
    0.0000    0.0000    0.0000 C   0  0  0  0  0  0  0  0  0  0  0  0
   -0.8675    0.4975    0.0000 C   0  0  0  0  0  0  0  0  0  0  0  0
   -0.8675    1.5027    0.0000 C   0  0  0  0  0  0  0  0  0  0  0  0
    0.0000    2.0104    0.0000 N   0  3  0  0  0  0  0  0  0  0  0  0
    0.0000    3.0104    0.0000 C   0  0  0  0  0  0  0  0  0  0  0  0
    0.8675    1.5027    0.0000 C   0  0  0  0  0  0  0  0  0  0  0  0
    0.8675    0.4975    0.0000 C   0  0  0  0  0  0  0  0  0  0  0  0
    1.7291    0.0051    0.0000 C   0  0  0  0  0  0  0  0  0  0  0  0
    2.6040    0.5000    0.0000 C   0  0  0  0  0  0  0  0  0  0  0  0
    2.6099    1.5000    0.0000 O   0  0  0  0  0  0  0  0  0  0  0  0
    3.4788    1.9949    0.0000 C   0  0  0  0  0  0  0  0  0  0  0  0
  1  2  1  0  0  0  0
  2  3  1  0  0  0  0
  3 17  1  0  0  0  0
  3  4  2  0  0  0  0
  4  5  1  0  0  0  0
  5  6  2  0  0  0  0
  6  7  1  0  0  0  0
  7  8  2  0  0  0  0
  8  9  1  0  0  0  0
  9 15  1  0  0  0  0
  9 10  2  0  0  0  0
 10 11  1  0  0  0  0
 11 12  2  0  0  0  0
 12 13  1  0  0  0  0
 12 14  1  0  0  0  0
 14 15  2  0  0  0  0
  6 16  1  0  0  0  0
 16 17  2  0  0  0  0
 17 18  1  0  0  0  0
 18 19  1  0  0  0  0
M  CHG  1  12   1
M  END
> <JC_XSMILES>
COC1=CC=C(\C=C/C2=CC=[N+](C)C=C2)C=C1OC

> <GNF-Pf identifier>
GNF-Pf-580

> <PF proliferation inhibition 3D7 EC50 uM>
1.107

> <W2 Pf proliferation inhibition EC50 uM >
>1.25

> <Huh7 cytotox for Pf inhibitiors CC50 uM>
>10

> <Powder data?>
No

> <IFI value>
0

> <Salt>
No salt

> <Equiv of salt>
0

$$$$

  -OEChem-06281415292D

 33 36  0     1  0  0  0  0  0999 V2000
    1.7350    2.0001    0.0000 C   0  0  0  0  0  0  0  0  0  0  0  0
    0.8675    1.5027    0.0000 C   0  0  3  0  0  0  0  0  0  0  0  0
    0.8675    0.4975    0.0000 C   0  0  0  0  0  0  0  0  0  0  0  0
    0.0000    0.0000    0.0000 C   0  0  0  0  0  0  0  0  0  0  0  0
   -0.8675    0.4975    0.0000 C   0  0  0  0  0  0  0  0  0  0  0  0
   -0.8675    1.5027    0.0000 C   0  0  0  0  0  0  0  0  0  0  0  0
    0.0000    2.0104    0.0000 N   0  0  3  0  0  0  0  0  0  0  0  0
    0.0000    3.0104    0.0000 C   0  0  0  0  0  0  0  0  0  0  0  0
   -0.8660    3.5104    0.0000 C   0  0  0  0  0  0  0  0  0  0  0  0
   -0.8660    4.5104    0.0000 C   0  0  0  0  0  0  0  0  0  0  0  0
   -1.7320    5.0104    0.0000 N   0  0  0  0  0  0  0  0  0  0  0  0
   -1.7320    6.0104    0.0000 C   0  0  0  0  0  0  0  0  0  0  0  0
   -0.8601    6.5104    0.0000 N   0  0  0  0  0  0  0  0  0  0  0  0
   -0.8690    7.5155    0.0000 C   0  0  0  0  0  0  0  0  0  0  0  0
   -1.7410    8.0155    0.0000 C   0  0  0  0  0  0  0  0  0  0  0  0
   -1.7454    9.0155    0.0000 C   0  0  0  0  0  0  0  0  0  0  0  0
   -0.8816    9.5193    0.0000 O   0  0  0  0  0  0  0  0  0  0  0  0
   -2.6136    9.5117    0.0000 N   0  0  0  0  0  0  0  0  0  0  0  0
   -2.6180   10.5117    0.0000 C   0  0  0  0  0  0  0  0  0  0  0  0
   -3.4862   11.0079    0.0000 C   0  0  0  0  0  0  0  0  0  0  0  0
   -4.3530   10.4989    0.0000 C   0  0  0  0  0  0  0  0  0  0  0  0
   -5.2213   10.9951    0.0000 C   0  0  0  0  0  0  0  0  0  0  0  0
   -5.2316   11.9950    0.0000 C   0  0  0  0  0  0  0  0  0  0  0  0
   -4.3648   12.5040    0.0000 C   0  0  0  0  0  0  0  0  0  0  0  0
   -3.4877   12.0130    0.0000 C   0  0  0  0  0  0  0  0  0  0  0  0
   -2.6041    7.5105    0.0000 C   0  0  0  0  0  0  0  0  0  0  0  0
   -3.4716    8.0079    0.0000 N   0  0  0  0  0  0  0  0  0  0  0  0
   -4.3361    7.5054    0.0000 C   0  0  0  0  0  0  0  0  0  0  0  0
   -4.4389    6.5090    0.0000 C   0  0  0  0  0  0  0  0  0  0  0  0
   -5.4175    6.2966    0.0000 C   0  0  0  0  0  0  0  0  0  0  0  0
   -5.9189    7.1618    0.0000 C   0  0  0  0  0  0  0  0  0  0  0  0
   -5.2554    7.9103    0.0000 C   0  0  0  0  0  0  0  0  0  0  0  0
   -2.6041    6.5104    0.0000 N   0  0  0  0  0  0  0  0  0  0  0  0
  1  2  1  0  0  0  0
  2  7  1  0  0  0  0
  2  3  1  0  0  0  0
  3  4  1  0  0  0  0
  4  5  1  0  0  0  0
  5  6  1  0  0  0  0
  6  7  1  0  0  0  0
  7  8  1  0  0  0  0
  8  9  1  0  0  0  0
  9 10  1  0  0  0  0
 10 11  1  0  0  0  0
 11 12  1  0  0  0  0
 12 33  1  0  0  0  0
 12 13  2  0  0  0  0
 13 14  1  0  0  0  0
 14 15  2  0  0  0  0
 15 16  1  0  0  0  0
 16 17  2  0  0  0  0
 16 18  1  0  0  0  0
 18 19  1  0  0  0  0
 19 20  1  0  0  0  0
 20 25  1  0  0  0  0
 20 21  2  0  0  0  0
 21 22  1  0  0  0  0
 22 23  2  0  0  0  0
 23 24  1  0  0  0  0
 24 25  2  0  0  0  0
 15 26  1  0  0  0  0
 26 27  1  0  0  0  0
 27 28  1  0  0  0  0
 28 32  1  0  0  0  0
 28 29  1  0  0  0  0
 29 30  1  0  0  0  0
 30 31  1  0  0  0  0
 31 32  1  0  0  0  0
 26 33  2  0  0  0  0
M  END
> <JC_XSMILES>
CC1CCCCN1CCCNC2=NC=C(C(=O)NCC3=CC=CC=C3)C(NC4CCCC4)=N2

> <GNF-Pf identifier>
GNF-Pf-640

> <PF proliferation inhibition 3D7 EC50 uM>
0.943

> <W2 Pf proliferation inhibition EC50 uM >
>1.25

> <Huh7 cytotox for Pf inhibitiors CC50 uM>
>10

> <Powder data?>
No

> <IFI value>
0.009433962

> <Salt>
No salt

> <Equiv of salt>
0

$$$$

  -OEChem-06281415292D

 27 28  0     0  0  0  0  0  0999 V2000
    2.5996   -3.4975    0.0000 C   0  0  0  0  0  0  0  0  0  0  0  0
    1.7335   -2.9975    0.0000 C   0  0  0  0  0  0  0  0  0  0  0  0
    0.8675   -3.4975    0.0000 C   0  0  0  0  0  0  0  0  0  0  0  0
    1.7335   -1.9975    0.0000 C   0  0  0  0  0  0  0  0  0  0  0  0
    0.8675   -1.4975    0.0000 N   0  0  0  0  0  0  0  0  0  0  0  0
    0.8675   -0.4975    0.0000 C   0  0  0  0  0  0  0  0  0  0  0  0
    1.7350    0.0000    0.0000 N   0  0  0  0  0  0  0  0  0  0  0  0
    1.7350    1.0052    0.0000 C   0  0  0  0  0  0  0  0  0  0  0  0
    2.6025    1.5026    0.0000 N   0  0  0  0  0  0  0  0  0  0  0  0
    2.6054    2.5026    0.0000 C   0  0  0  0  0  0  0  0  0  0  0  0
    3.4729    3.0001    0.0000 C   0  0  0  0  0  0  0  0  0  0  0  0
    3.4759    4.0001    0.0000 C   0  0  0  0  0  0  0  0  0  0  0  0
    4.3434    4.4975    0.0000 N   0  0  0  0  0  0  0  0  0  0  0  0
    0.8675    1.5129    0.0000 N   0  0  0  0  0  0  0  0  0  0  0  0
    0.0000    1.0052    0.0000 C   0  0  0  0  0  0  0  0  0  0  0  0
    0.0000    0.0000    0.0000 C   0  0  0  0  0  0  0  0  0  0  0  0
   -0.8653   -0.5013    0.0000 C   0  0  0  0  0  0  0  0  0  0  0  0
   -1.7320   -0.0025    0.0000 O   0  0  0  0  0  0  0  0  0  0  0  0
   -0.8638   -1.5013    0.0000 N   0  0  0  0  0  0  0  0  0  0  0  0
   -1.7291   -2.0025    0.0000 C   0  0  0  0  0  0  0  0  0  0  0  0
   -1.7277   -3.0025    0.0000 C   0  0  0  0  0  0  0  0  0  0  0  0
   -2.5930   -3.5038    0.0000 C   0  0  0  0  0  0  0  0  0  0  0  0
   -2.5886   -4.5090    0.0000 C   0  0  0  0  0  0  0  0  0  0  0  0
   -3.4539   -5.0103    0.0000 C   0  0  0  0  0  0  0  0  0  0  0  0
   -4.3236   -4.5166    0.0000 C   0  0  0  0  0  0  0  0  0  0  0  0
   -4.3280   -3.5114    0.0000 C   0  0  0  0  0  0  0  0  0  0  0  0
   -3.4627   -2.9999    0.0000 C   0  0  0  0  0  0  0  0  0  0  0  0
  1  2  1  0  0  0  0
  2  3  1  0  0  0  0
  2  4  1  0  0  0  0
  4  5  1  0  0  0  0
  5  6  1  0  0  0  0
  6 16  1  0  0  0  0
  6  7  2  0  0  0  0
  7  8  1  0  0  0  0
  8  9  1  0  0  0  0
  9 10  1  0  0  0  0
 10 11  1  0  0  0  0
 11 12  1  0  0  0  0
 12 13  1  0  0  0  0
  8 14  2  0  0  0  0
 14 15  1  0  0  0  0
 15 16  2  0  0  0  0
 16 17  1  0  0  0  0
 17 18  2  0  0  0  0
 17 19  1  0  0  0  0
 19 20  1  0  0  0  0
 20 21  1  0  0  0  0
 21 22  1  0  0  0  0
 22 27  1  0  0  0  0
 22 23  2  0  0  0  0
 23 24  1  0  0  0  0
 24 25  2  0  0  0  0
 25 26  1  0  0  0  0
 26 27  2  0  0  0  0
M  END
> <JC_XSMILES>
CC(C)CNC1=NC(NCCCN)=NC=C1C(=O)NCCC2=CC=CC=C2

> <GNF-Pf identifier>
GNF-Pf-723

> <PF proliferation inhibition 3D7 EC50 uM>
0.598

> <W2 Pf proliferation inhibition EC50 uM >
>1.25

> <Huh7 cytotox for Pf inhibitiors CC50 uM>
>10

> <Powder data?>
No

> <IFI value>
0.019047619

> <Salt>
No salt

> <Equiv of salt>
0

$$$$

  -OEChem-06281415292D

 37 40  0     1  0  0  0  0  0999 V2000
   -4.1992    5.3188    0.0000 C   0  0  0  0  0  0  0  0  0  0  0  0
   -3.4562    4.6496    0.0000 C   0  0  0  0  0  0  0  0  0  0  0  0
   -2.5051    4.9584    0.0000 O   0  0  0  0  0  0  0  0  0  0  0  0
   -1.7620    4.2892    0.0000 C   0  0  0  0  0  0  0  0  0  0  0  0
   -1.9701    3.3111    0.0000 O   0  0  0  0  0  0  0  0  0  0  0  0
   -0.8109    4.5981    0.0000 C   0  0  0  0  0  0  0  0  0  0  0  0
   -0.5005    5.5487    0.0000 C   0  0  0  0  0  0  0  0  0  0  0  0
   -1.0896    6.3568    0.0000 C   0  0  0  0  0  0  0  0  0  0  0  0
    0.4999    5.5535    0.0000 N   0  0  0  0  0  0  0  0  0  0  0  0
    0.8111    4.5982    0.0000 C   0  0  0  0  0  0  0  0  0  0  0  0
    1.7620    4.2890    0.0000 C   0  0  0  0  0  0  0  0  0  0  0  0
   -0.0000    4.0104    0.0000 C   0  0  0  0  0  0  0  0  0  0  0  0
   -0.0000    3.0104    0.0000 S   0  0  0  0  0  0  0  0  0  0  0  0
    1.0000    3.0104    0.0000 O   0  0  0  0  0  0  0  0  0  0  0  0
   -1.0000    3.0104    0.0000 O   0  0  0  0  0  0  0  0  0  0  0  0
   -0.0000    2.0104    0.0000 N   0  0  3  0  0  0  0  0  0  0  0  0
   -0.8675    1.5027    0.0000 C   0  0  0  0  0  0  0  0  0  0  0  0
   -0.8675    0.4975    0.0000 C   0  0  0  0  0  0  0  0  0  0  0  0
    0.0000    0.0000    0.0000 C   0  0  0  0  0  0  0  0  0  0  0  0
    0.8675    0.4975    0.0000 C   0  0  3  0  0  0  0  0  0  0  0  0
    0.8675    1.5027    0.0000 C   0  0  0  0  0  0  0  0  0  0  0  0
    1.7328   -0.0038    0.0000 C   0  0  0  0  0  0  0  0  0  0  0  0
    1.7313   -1.0038    0.0000 O   0  0  0  0  0  0  0  0  0  0  0  0
    2.5995    0.4950    0.0000 N   0  0  0  0  0  0  0  0  0  0  0  0
    3.4720   -0.0037    0.0000 C   0  0  0  0  0  0  0  0  0  0  0  0
    4.3432    0.4976    0.0000 C   0  0  0  0  0  0  0  0  0  0  0  0
    4.3419    1.4976    0.0000 N   0  0  0  0  0  0  0  0  0  0  0  0
    3.4780    2.0012    0.0000 C   0  0  0  0  0  0  0  0  0  0  0  0
    2.6068    1.4999    0.0000 C   0  0  0  0  0  0  0  0  0  0  0  0
    5.2086    1.9963    0.0000 C   0  0  0  0  0  0  0  0  0  0  0  0
    6.0769    1.4899    0.0000 C   0  0  0  0  0  0  0  0  0  0  0  0
    6.9437    1.9886    0.0000 C   0  0  0  0  0  0  0  0  0  0  0  0
    6.9511    2.9886    0.0000 C   0  0  0  0  0  0  0  0  0  0  0  0
    6.0827    3.4950    0.0000 C   0  0  0  0  0  0  0  0  0  0  0  0
    6.0901    4.4950    0.0000 C   0  0  0  0  0  0  0  0  0  0  0  0
    5.2071    3.0014    0.0000 C   0  0  0  0  0  0  0  0  0  0  0  0
    4.3433    3.5053    0.0000 C   0  0  0  0  0  0  0  0  0  0  0  0
  1  2  1  0  0  0  0
  2  3  1  0  0  0  0
  3  4  1  0  0  0  0
  4  5  2  0  0  0  0
  4  6  1  0  0  0  0
  6 12  1  0  0  0  0
  6  7  2  0  0  0  0
  7  8  1  0  0  0  0
  7  9  1  0  0  0  0
  9 10  1  0  0  0  0
 10 11  1  0  0  0  0
 10 12  2  0  0  0  0
 12 13  1  0  0  0  0
 13 14  2  0  0  0  0
 13 15  2  0  0  0  0
 13 16  1  0  0  0  0
 16 21  1  0  0  0  0
 16 17  1  0  0  0  0
 17 18  1  0  0  0  0
 18 19  1  0  0  0  0
 19 20  1  0  0  0  0
 20 21  1  0  0  0  0
 20 22  1  0  0  0  0
 22 23  2  0  0  0  0
 22 24  1  0  0  0  0
 24 29  1  0  0  0  0
 24 25  1  0  0  0  0
 25 26  1  0  0  0  0
 26 27  1  0  0  0  0
 27 28  1  0  0  0  0
 28 29  1  0  0  0  0
 27 30  1  0  0  0  0
 30 36  1  0  0  0  0
 30 31  2  0  0  0  0
 31 32  1  0  0  0  0
 32 33  2  0  0  0  0
 33 34  1  0  0  0  0
 34 35  1  0  0  0  0
 34 36  2  0  0  0  0
 36 37  1  0  0  0  0
M  END
> <JC_XSMILES>
CCOC(=O)C1=C(C)NC(C)=C1S(=O)(=O)N2CCCC(C2)C(=O)N3CCN(CC3)C4=CC=CC(C)=C4C

> <GNF-Pf identifier>
GNF-Pf-737

> <PF proliferation inhibition 3D7 EC50 uM>
5.26

> <W2 Pf proliferation inhibition EC50 uM >
>12.5

> <Huh7 cytotox for Pf inhibitiors CC50 uM>
>100

> <Powder data?>
Yes

> <IFI value>
0

> <Salt>
No salt

> <Equiv of salt>
0

$$$$

  -OEChem-06281415292D

 28 30  0     0  0  0  0  0  0999 V2000
   -0.7722   -2.5306    0.0000 C   0  0  0  0  0  0  0  0  0  0  0  0
   -0.1833   -1.7223    0.0000 O   0  0  0  0  0  0  0  0  0  0  0  0
   -0.5889   -0.8082    0.0000 C   0  0  0  0  0  0  0  0  0  0  0  0
   -1.5832   -0.7024    0.0000 O   0  0  0  0  0  0  0  0  0  0  0  0
    0.0000    0.0000    0.0000 C   0  0  0  0  0  0  0  0  0  0  0  0
   -0.3065    0.9519    0.0000 C   0  0  0  0  0  0  0  0  0  0  0  0
    0.5008    1.5428    0.0000 O   0  0  0  0  0  0  0  0  0  0  0  0
    1.3133    0.9519    0.0000 N   0  0  0  0  0  0  0  0  0  0  0  0
    1.0015    0.0000    0.0000 C   0  0  0  0  0  0  0  0  0  0  0  0
    2.0284   -1.4170    0.0000 C   0  0  0  0  0  0  0  0  0  0  0  0
    1.6239   -2.3372    0.0000 C   0  0  0  0  0  0  0  0  0  0  0  0
    0.6296   -2.4434    0.0000 F   0  0  0  0  0  0  0  0  0  0  0  0
    2.2138   -3.1511    0.0000 C   0  0  0  0  0  0  0  0  0  0  0  0
    3.2082   -3.0449    0.0000 C   0  0  0  0  0  0  0  0  0  0  0  0
    3.6187   -2.1330    0.0000 C   0  0  0  0  0  0  0  0  0  0  0  0
    3.0288   -1.3190    0.0000 C   0  0  0  0  0  0  0  0  0  0  0  0
    3.4393   -0.4072    0.0000 Cl  0  0  0  0  0  0  0  0  0  0  0  0
   -1.2577    1.2605    0.0000 C   0  0  0  0  0  0  0  0  0  0  0  0
   -2.0005    0.5910    0.0000 C   0  0  0  0  0  0  0  0  0  0  0  0
   -2.9517    0.8997    0.0000 N   0  0  0  0  0  0  0  0  0  0  0  0
   -3.6946    0.2302    0.0000 C   0  0  0  0  0  0  0  0  0  0  0  0
   -3.4823   -0.7523    0.0000 C   0  0  0  0  0  0  0  0  0  0  0  0
   -4.2251   -1.4218    0.0000 C   0  0  0  0  0  0  0  0  0  0  0  0
   -5.1781   -1.1188    0.0000 C   0  0  0  0  0  0  0  0  0  0  0  0
   -5.9180   -1.7915    0.0000 O   0  0  0  0  0  0  0  0  0  0  0  0
   -5.7054   -2.7686    0.0000 C   0  0  0  0  0  0  0  0  0  0  0  0
   -5.3904   -0.1363    0.0000 C   0  0  0  0  0  0  0  0  0  0  0  0
   -4.6498    0.5432    0.0000 C   0  0  0  0  0  0  0  0  0  0  0  0
  1  2  1  0  0  0  0
  2  3  1  0  0  0  0
  3  4  2  0  0  0  0
  3  5  1  0  0  0  0
  5  9  1  0  0  0  0
  5  6  2  0  0  0  0
  6  7  1  0  0  0  0
  7  8  1  0  0  0  0
  8  9  2  0  0  0  0
  9 10  1  0  0  0  0
 10 16  1  0  0  0  0
 10 11  2  0  0  0  0
 11 12  1  0  0  0  0
 11 13  1  0  0  0  0
 13 14  2  0  0  0  0
 14 15  1  0  0  0  0
 15 16  2  0  0  0  0
 16 17  1  0  0  0  0
  6 18  1  0  0  0  0
 18 19  2  0  0  0  0
 19 20  1  0  0  0  0
 20 21  1  0  0  0  0
 21 28  1  0  0  0  0
 21 22  2  0  0  0  0
 22 23  1  0  0  0  0
 23 24  2  0  0  0  0
 24 25  1  0  0  0  0
 25 26  1  0  0  0  0
 24 27  1  0  0  0  0
 27 28  2  0  0  0  0
M  END
> <JC_XSMILES>
COC(=O)C1=C(ON=C1C2=C(F)C=CC=C2Cl)\C=C\NC3=CC=C(OC)C=C3

> <GNF-Pf identifier>
GNF-Pf-750

> <PF proliferation inhibition 3D7 EC50 uM>
0.427

> <W2 Pf proliferation inhibition EC50 uM >
>1.25

> <Huh7 cytotox for Pf inhibitiors CC50 uM>
>10

> <Powder data?>
No

> <IFI value>
0.039473684

> <Salt>
No salt

> <Equiv of salt>
0

$$$$

  -OEChem-06281415292D

 12 13  0     1  0  0  0  0  0999 V2000
    0.8674   -1.4979    0.0000 O   0  0  0  0  0  0  0  0  0  0  0  0
    0.8680   -0.4979    0.0000 C   0  0  3  0  0  0  0  0  0  0  0  0
    0.0000    0.0000    0.0000 C   0  0  0  0  0  0  0  0  0  0  0  0
   -0.0000    1.0058    0.0000 C   0  0  0  0  0  0  0  0  0  0  0  0
    0.8680    1.5137    0.0000 S   0  0  0  0  0  0  0  0  0  0  0  0
    0.2237    2.2785    0.0000 O   0  0  0  0  0  0  0  0  0  0  0  0
    1.5123    2.2785    0.0000 O   0  0  0  0  0  0  0  0  0  0  0  0
    1.7360    1.0058    0.0000 C   0  0  0  0  0  0  0  0  0  0  0  0
    1.7360   -0.0013    0.0000 C   0  0  0  0  0  0  0  0  0  0  0  0
    2.6938   -0.3126    0.0000 C   0  0  0  0  0  0  0  0  0  0  0  0
    3.2858    0.5022    0.0000 C   0  0  0  0  0  0  0  0  0  0  0  0
    2.6938    1.3168    0.0000 S   0  0  0  0  0  0  0  0  0  0  0  0
  1  2  1  0  0  0  0
  2  9  1  0  0  0  0
  2  3  1  0  0  0  0
  3  4  1  0  0  0  0
  4  5  1  0  0  0  0
  5  6  2  0  0  0  0
  5  7  2  0  0  0  0
  5  8  1  0  0  0  0
  8 12  1  0  0  0  0
  8  9  2  0  0  0  0
  9 10  1  0  0  0  0
 10 11  2  0  0  0  0
 11 12  1  0  0  0  0
M  END
> <JC_XSMILES>
OC1CCS(=O)(=O)C2=C1C=CS2

> <GNF-Pf identifier>
GNF-Pf-751

> <PF proliferation inhibition 3D7 EC50 uM>
4.18

> <W2 Pf proliferation inhibition EC50 uM >
>12.5

> <Huh7 cytotox for Pf inhibitiors CC50 uM>
>100

> <Powder data?>
Yes

> <IFI value>
0

> <Salt>
No salt

> <Equiv of salt>
0

$$$$

  -OEChem-06281415292D

 18 19  0     0  0  0  0  0  0999 V2000
    3.4670    1.9950    0.0000 C   0  0  0  0  0  0  0  0  0  0  0  0
    2.5995    1.4976    0.0000 C   0  0  0  0  0  0  0  0  0  0  0  0
    2.5966    0.4976    0.0000 C   0  0  0  0  0  0  0  0  0  0  0  0
    1.7350    2.0001    0.0000 C   0  0  0  0  0  0  0  0  0  0  0  0
    0.8675    1.5027    0.0000 C   0  0  0  0  0  0  0  0  0  0  0  0
    0.8675    0.4975    0.0000 C   0  0  0  0  0  0  0  0  0  0  0  0
    0.0000    0.0000    0.0000 C   0  0  0  0  0  0  0  0  0  0  0  0
   -0.8675    0.4975    0.0000 C   0  0  0  0  0  0  0  0  0  0  0  0
   -1.7328   -0.0038    0.0000 C   0  0  0  0  0  0  0  0  0  0  0  0
   -1.7313   -1.0038    0.0000 C   0  0  0  0  0  0  0  0  0  0  0  0
   -2.5966   -1.5050    0.0000 C   0  0  0  0  0  0  0  0  0  0  0  0
   -3.4634   -1.0063    0.0000 O   0  0  0  0  0  0  0  0  0  0  0  0
   -2.5952   -2.5050    0.0000 N   0  0  0  0  0  0  0  0  0  0  0  0
   -3.4605   -3.0063    0.0000 C   0  0  0  0  0  0  0  0  0  0  0  0
   -4.4624   -3.0088    0.0000 C   0  0  0  0  0  0  0  0  0  0  0  0
   -3.9611   -3.8741    0.0000 C   0  0  0  0  0  0  0  0  0  0  0  0
   -0.8675    1.5027    0.0000 C   0  0  0  0  0  0  0  0  0  0  0  0
    0.0000    2.0104    0.0000 C   0  0  0  0  0  0  0  0  0  0  0  0
  1  2  1  0  0  0  0
  2  3  1  0  0  0  0
  2  4  1  0  0  0  0
  4  5  1  0  0  0  0
  5 18  1  0  0  0  0
  5  6  2  0  0  0  0
  6  7  1  0  0  0  0
  7  8  2  0  0  0  0
  8  9  1  0  0  0  0
  9 10  2  0  0  0  0
 10 11  1  0  0  0  0
 11 12  2  0  0  0  0
 11 13  1  0  0  0  0
 13 14  1  0  0  0  0
 14 16  1  0  0  0  0
 14 15  1  0  0  0  0
 15 16  1  0  0  0  0
  8 17  1  0  0  0  0
 17 18  2  0  0  0  0
M  END
> <JC_XSMILES>
CC(C)CC1=CC=C(\C=C\C(=O)NC2CC2)C=C1

> <GNF-Pf identifier>
GNF-Pf-860

> <PF proliferation inhibition 3D7 EC50 uM>
0.913

> <W2 Pf proliferation inhibition EC50 uM >
>1.196

> <Huh7 cytotox for Pf inhibitiors CC50 uM>
>10

> <Powder data?>
No

> <IFI value>
0

> <Salt>
No salt

> <Equiv of salt>
0

$$$$
